
 Model Input Parameters:  ROMS/TOMS version 3.7  
                          Saturday - October 4, 2014 - 11:16:43 PM
 -----------------------------------------------------------------------------

 Idealised Ice Shelf Application

 Operating system : Linux
 CPU/hardware     : x86_64
 Compiler system  : ifort
 Compiler command : /apps/sles11sp2/intel/composer_xe_2013.1.117/bin/intel64/ifort
 Compiler flags   :  -ip -O3 -free -free -free

 Input Script  : 

 SVN Root URL  : https:://myroms.org/svn/src
 SVN Revision  : exported

 Local Root    : /scratch/dgwyther/romsIceShelf_drag081_testing3
 Header Dir    : /scratch/dgwyther/romsIceShelf_drag081_testing3/ROMS/Include
 Header file   : icetest.h
 Analytical Dir: /scratch/dgwyther/romsIceShelf_drag081_testing3/ROMS/Functionals

 Resolution, Grid 01: 0051x0101x024,  Parallel Nodes:  32,  Tiling: 004x008


 Physical Parameters, Grid: 01
 =============================

    3155760  ntimes          Number of timesteps for 3-D equations.
    300.000  dt              Timestep size (s) for 3-D equations.
         30  ndtfast         Number of timesteps for 2-D equations between
                               each 3D timestep.
          1  ERstr           Starting ensemble/perturbation run number.
          1  ERend           Ending ensemble/perturbation run number.
          0  nrrec           Number of restart records to read from disk.
          T  LcycleRST       Switch to recycle time-records in restart file.
       8766  nRST            Number of timesteps between the writing of data
                               into restart fields.
          1  ninfo           Number of timesteps between print of information
                               to standard output.
          T  ldefout         Switch to create a new output NetCDF file(s).
        288  nHIS            Number of timesteps between the writing fields
                               into history file.
     105192  ndefHIS         Number of timesteps between creation of new
                               history files.
 1.0000E+02  nl_tnu2(01)     NLM Horizontal, harmonic mixing coefficient
                               (m2/s) for tracer 01: temp
 1.0000E+02  nl_tnu2(02)     NLM Horizontal, harmonic mixing coefficient
                               (m2/s) for tracer 02: salt
 6.0000E+02  nl_visc2        NLM Horizontal, harmonic mixing coefficient
                               (m2/s) for momentum.
 5.0000E-05  Akt_bak(01)     Background vertical mixing coefficient (m2/s)
                               for tracer 01: temp
 5.0000E-05  Akt_bak(02)     Background vertical mixing coefficient (m2/s)
                               for tracer 02: salt
 1.0000E-03  Akv_bak         Background vertical mixing coefficient (m2/s)
                               for momentum.
 3.0000E-04  rdrg            Linear bottom drag coefficient (m/s).
 3.0000E-03  rdrg2           Quadratic bottom drag coefficient.
 2.0000E-02  Zob             Bottom roughness (m).
          1  lmd_Jwt         Jerlov water type.
          1  Vtransform      S-coordinate transformation equation.
          1  Vstretching     S-coordinate stretching function.
 4.0000E+00  theta_s         S-coordinate surface control parameter.
 9.0000E-01  theta_b         S-coordinate bottom  control parameter.
     20.000  Tcline          S-coordinate surface/bottom layer width (m) used
                               in vertical coordinate stretching.
   1027.000  rho0            Mean density (kg/m3) for Boussinesq approximation.
      0.000  dstart          Time-stamp assigned to model initialization (days).
       0.00  time_ref        Reference time for units attribute (yyyymmdd.dd)
 0.0000E+00  Tnudg(01)       Nudging/relaxation time scale (days)
                               for tracer 01: temp
 0.0000E+00  Tnudg(02)       Nudging/relaxation time scale (days)
                               for tracer 02: salt
 0.0000E+00  Znudg           Nudging/relaxation time scale (days)
                               for free-surface.
 0.0000E+00  M2nudg          Nudging/relaxation time scale (days)
                               for 2D momentum.
 0.0000E+00  M3nudg          Nudging/relaxation time scale (days)
                               for 3D momentum.
 0.0000E+00  obcfac          Factor between passive and active
                               open boundary conditions.
          F  VolCons(1)      NLM western  edge boundary volume conservation.
          F  VolCons(2)      NLM southern edge boundary volume conservation.
          F  VolCons(3)      NLM eastern  edge boundary volume conservation.
          F  VolCons(4)      NLM northern edge boundary volume conservation.
     -0.278  T0              Background potential temperature (C) constant.
     34.649  S0              Background salinity (PSU) constant.
      1.000  gamma2          Slipperiness variable: free-slip (1.0) or 
                                                    no-slip (-1.0).
          T  Hout(idgamt)    Write out turbulent heat exchange.
          T  Hout(idgams)    Write out turbulent salt exchange.
          T  Hout(idtbvs)    Write out viscous sublayer temperature.
          T  Hout(idsbvs)    Write out viscous sublayer salinity.
          T  Hout(idismr)    Write out ice shelf melt rate.
          T  Hout(idFsur)    Write out free-surface.
          T  Hout(idUbar)    Write out 2D U-momentum component.
          T  Hout(idVbar)    Write out 2D V-momentum component.
          T  Hout(idUvel)    Write out 3D U-momentum component.
          T  Hout(idVvel)    Write out 3D V-momentum component.
          T  Hout(idWvel)    Write out W-momentum component.
          T  Hout(idOvel)    Write out omega vertical velocity.
          T  Hout(idTvar)    Write out tracer 01: temp
          T  Hout(idTvar)    Write out tracer 02: salt
          T  Hout(idUsms)    Write out surface U-momentum stress.
          T  Hout(idVsms)    Write out surface V-momentum stress.
          T  Hout(idUbms)    Write out bottom U-momentum stress.
          T  Hout(idVbms)    Write out bottom V-momentum stress.
          T  Hout(idTsur)    Write out surface net heat flux.
          T  Hout(idTsur)    Write out surface net salt flux.
          T  Hout(idDano)    Write out density anomaly.
          T  Hout(idVvis)    Write out vertical viscosity: AKv.
          T  Hout(idTdif)    Write out vertical diffusion: AKt(itemp).
          T  Hout(idSdif)    Write out vertical diffusion: AKt(isalt).
          T  Hout(idHsbl)    Write out depth of surface boundary layer.

 Output/Input Files:

             Output Restart File:  ocean_rst2.nc
        Prefix for History Files:  ocean_his

 Tile partition information for Grid 01:  0051x0101x0024  tiling: 004x008

     tile     Istr     Iend     Jstr     Jend     Npts

        0        1       13        1       12     3744
        1       14       26        1       12     3744
        2       27       39        1       12     3744
        3       40       51        1       12     3456
        4        1       13       13       25     4056
        5       14       26       13       25     4056
        6       27       39       13       25     4056
        7       40       51       13       25     3744
        8        1       13       26       38     4056
        9       14       26       26       38     4056
       10       27       39       26       38     4056
       11       40       51       26       38     3744
       12        1       13       39       51     4056
       13       14       26       39       51     4056
       14       27       39       39       51     4056
       15       40       51       39       51     3744
       16        1       13       52       64     4056
       17       14       26       52       64     4056
       18       27       39       52       64     4056
       19       40       51       52       64     3744
       20        1       13       65       77     4056
       21       14       26       65       77     4056
       22       27       39       65       77     4056
       23       40       51       65       77     3744
       24        1       13       78       90     4056
       25       14       26       78       90     4056
       26       27       39       78       90     4056
       27       40       51       78       90     3744
       28        1       13       91      101     3432
       29       14       26       91      101     3432
       30       27       39       91      101     3432
       31       40       51       91      101     3168

 Node #  8 (pid=    4653) is active.
 Node #  9 (pid=    4654) is active.
 Node # 24 (pid=   20503) is active.
 Node # 10 (pid=    4655) is active.
 Node # 16 (pid=   28135) is active.
 Node # 25 (pid=   20504) is active.
 Node # 11 (pid=    4656) is active.
 Node # 17 (pid=   28136) is active.
 Node # 26 (pid=   20505) is active.
 Node # 12 (pid=    4657) is active.
 Node # 18 (pid=   28137) is active.
 Node # 27 (pid=   20506) is active.
 Node # 13 (pid=    4658) is active.
 Node # 19 (pid=   28138) is active.
 Node # 28 (pid=   20507) is active.
 Node # 14 (pid=    4659) is active.
 Node # 20 (pid=   28139) is active.
 Node # 29 (pid=   20508) is active.
 Node # 15 (pid=    4660) is active.
 Node # 21 (pid=   28140) is active.
 Node # 30 (pid=   20509) is active.
 Node # 22 (pid=   28141) is active.
 Node # 31 (pid=   20510) is active.
 Node # 23 (pid=   28142) is active.
 Tile minimum and maximum fractional coordinates for Grid 01:
   (interior points only)

     tile     Xmin     Xmax     Ymin     Ymax     grid

        0     0.50    13.50     0.50    12.50  RHO-points
        1    13.50    26.50     0.50    12.50  RHO-points
        2    26.50    39.50     0.50    12.50  RHO-points
        3    39.50    51.50     0.50    12.50  RHO-points
        4     0.50    13.50    12.50    25.50  RHO-points
        5    13.50    26.50    12.50    25.50  RHO-points
        6    26.50    39.50    12.50    25.50  RHO-points
        7    39.50    51.50    12.50    25.50  RHO-points
        8     0.50    13.50    25.50    38.50  RHO-points
        9    13.50    26.50    25.50    38.50  RHO-points
       10    26.50    39.50    25.50    38.50  RHO-points
       11    39.50    51.50    25.50    38.50  RHO-points
       12     0.50    13.50    38.50    51.50  RHO-points
       13    13.50    26.50    38.50    51.50  RHO-points
       14    26.50    39.50    38.50    51.50  RHO-points
       15    39.50    51.50    38.50    51.50  RHO-points
       16     0.50    13.50    51.50    64.50  RHO-points
       17    13.50    26.50    51.50    64.50  RHO-points
       18    26.50    39.50    51.50    64.50  RHO-points
       19    39.50    51.50    51.50    64.50  RHO-points
       20     0.50    13.50    64.50    77.50  RHO-points
       21    13.50    26.50    64.50    77.50  RHO-points
       22    26.50    39.50    64.50    77.50  RHO-points
       23    39.50    51.50    64.50    77.50  RHO-points
       24     0.50    13.50    77.50    90.50  RHO-points
       25    13.50    26.50    77.50    90.50  RHO-points
       26    26.50    39.50    77.50    90.50  RHO-points
       27    39.50    51.50    77.50    90.50  RHO-points
       28     0.50    13.50    90.50   101.50  RHO-points
       29    13.50    26.50    90.50   101.50  RHO-points
       30    26.50    39.50    90.50   101.50  RHO-points
       31    39.50    51.50    90.50   101.50  RHO-points

        0     1.00    13.50     0.50    12.50    U-points
        1    13.50    26.50     0.50    12.50    U-points
        2    26.50    39.50     0.50    12.50    U-points
        3    39.50    51.00     0.50    12.50    U-points
        4     1.00    13.50    12.50    25.50    U-points
        5    13.50    26.50    12.50    25.50    U-points
        6    26.50    39.50    12.50    25.50    U-points
        7    39.50    51.00    12.50    25.50    U-points
        8     1.00    13.50    25.50    38.50    U-points
        9    13.50    26.50    25.50    38.50    U-points
       10    26.50    39.50    25.50    38.50    U-points
       11    39.50    51.00    25.50    38.50    U-points
       12     1.00    13.50    38.50    51.50    U-points
       13    13.50    26.50    38.50    51.50    U-points
       14    26.50    39.50    38.50    51.50    U-points
       15    39.50    51.00    38.50    51.50    U-points
       16     1.00    13.50    51.50    64.50    U-points
       17    13.50    26.50    51.50    64.50    U-points
       18    26.50    39.50    51.50    64.50    U-points
       19    39.50    51.00    51.50    64.50    U-points
       20     1.00    13.50    64.50    77.50    U-points
       21    13.50    26.50    64.50    77.50    U-points
       22    26.50    39.50    64.50    77.50    U-points
       23    39.50    51.00    64.50    77.50    U-points
       24     1.00    13.50    77.50    90.50    U-points
       25    13.50    26.50    77.50    90.50    U-points
       26    26.50    39.50    77.50    90.50    U-points
       27    39.50    51.00    77.50    90.50    U-points
       28     1.00    13.50    90.50   101.50    U-points
       29    13.50    26.50    90.50   101.50    U-points
       30    26.50    39.50    90.50   101.50    U-points
       31    39.50    51.00    90.50   101.50    U-points

        0     0.50    13.50     1.00    12.50    V-points
        1    13.50    26.50     1.00    12.50    V-points
        2    26.50    39.50     1.00    12.50    V-points
        3    39.50    51.50     1.00    12.50    V-points
        4     0.50    13.50    12.50    25.50    V-points
        5    13.50    26.50    12.50    25.50    V-points
        6    26.50    39.50    12.50    25.50    V-points
        7    39.50    51.50    12.50    25.50    V-points
        8     0.50    13.50    25.50    38.50    V-points
        9    13.50    26.50    25.50    38.50    V-points
       10    26.50    39.50    25.50    38.50    V-points
       11    39.50    51.50    25.50    38.50    V-points
       12     0.50    13.50    38.50    51.50    V-points
       13    13.50    26.50    38.50    51.50    V-points
       14    26.50    39.50    38.50    51.50    V-points
       15    39.50    51.50    38.50    51.50    V-points
       16     0.50    13.50    51.50    64.50    V-points
       17    13.50    26.50    51.50    64.50    V-points
       18    26.50    39.50    51.50    64.50    V-points
       19    39.50    51.50    51.50    64.50    V-points
       20     0.50    13.50    64.50    77.50    V-points
       21    13.50    26.50    64.50    77.50    V-points
       22    26.50    39.50    64.50    77.50    V-points
       23    39.50    51.50    64.50    77.50    V-points
       24     0.50    13.50    77.50    90.50    V-points
       25    13.50    26.50    77.50    90.50    V-points
       26    26.50    39.50    77.50    90.50    V-points
       27    39.50    51.50    77.50    90.50    V-points
       28     0.50    13.50    90.50   101.00    V-points
       29    13.50    26.50    90.50   101.00    V-points
       30    26.50    39.50    90.50   101.00    V-points
       31    39.50    51.50    90.50   101.00    V-points

 Maximum halo size in XI and ETA directions:

               HaloSizeI(1) =      50
               HaloSizeJ(1) =      50
                TileSide(1) =      19
                TileSize(1) =     361


 Lateral Boundary Conditions: NLM
 ============================

 Variable               Grid  West Edge    South Edge   East Edge    North Edge
 ---------              ----  ----------   ----------   ----------   ----------

 zeta                     1   Closed       Closed       Closed       Closed

 ubar                     1   Closed       Closed       Closed       Closed

 vbar                     1   Closed       Closed       Closed       Closed

 u                        1   Closed       Closed       Closed       Closed

 v                        1   Closed       Closed       Closed       Closed

 temp                     1   Closed       Closed       Closed       Closed

 salt                     1   Closed       Closed       Closed       Closed

 Activated C-preprocessing Options:

 ICETEST             Idealised Ice Shelf Application
 ANA_BSFLUX          Analytical kinematic bottom salinity flux.
 ANA_BTFLUX          Analytical kinematic bottom temperature flux.
 ANA_ICEDRAG_GRID    Analytical spatially varying quadratic ice-ocean drag coeff.
 ANA_GRID            Analytical grid set-up.
 ANA_INITIAL         Analytical initial conditions.
 ANA_SMFLUX          Analytical kinematic surface momentum flux.
 ANA_SRFLUX          Analytical kinematic shortwave radiation flux.
 ANA_SSFLUX          Analytical kinematic surface salinity flux.
 ANA_STFLUX          Analytical kinematic surface temperature flux.
 ASSUMED_SHAPE       Using assumed-shape arrays.
 CURVGRID            Orthogonal curvilinear grid.
 DJ_GRADPS           Parabolic Splines density Jacobian (Shchepetkin, 2002).
 DOUBLE_PRECISION    Double precision arithmetic.
 ICESHELF            Include Ice Shelf Cavities.
 LMD_CONVEC          LMD convective mixing due to shear instability.
 LMD_DDMIX           LMD double-diffusive mixing.
 LMD_MIXING          Large/McWilliams/Doney interior mixing.
 LMD_RIMIX           LMD diffusivity due to shear instability.
 LMD_SKPP            KPP surface boundary layer mixing.
 MIX_GEO_TS          Mixing of tracers along geopotential surfaces.
 MIX_GEO_UV          Mixing of momentum along geopotential surfaces.
 MPI                 MPI distributed-memory configuration.
 NONLINEAR           Nonlinear Model.
 NONLIN_EOS          Nonlinear Equation of State for seawater.
 PERFECT_RESTART     Processing perfect restart variables.
 POWER_LAW           Power-law shape time-averaging barotropic filter.
 PROFILE             Time profiling activated .
 !RST_SINGLE         Double precision fields in restart NetCDF file.
 SALINITY            Using salinity.
 SOLVE3D             Solving 3D Primitive Equations.
 SPLINES             Conservative parabolic spline reconstruction.
 SPHERICAL           Spherical grid configuration.
 TS_C4HADVECTION     Fourth-order centered horizontal advection of tracers.
 TS_C4VADVECTION     Fourth-order centered vertical advection of tracers.
 TS_DIF2             Harmonic mixing of tracers.
 UV_ADV              Advection of momentum.
 UV_COR              Coriolis term.
 UV_U3HADVECTION     Third-order upstream horizontal advection of 3D momentum.
 UV_C4VADVECTION     Fourth-order centered vertical advection of momentum.
 UV_ICEDRAG_GRID     Spatially varying quadratic drag coefficient.
 UV_QDRAG            Quadratic bottom stress.
 UV_VIS2             Harmonic mixing of momentum.
 VAR_RHO_2D          Variable density barotropic mode.

 Process Information:

 Node #  0 (pid=    6690) is active.

 INITIAL: Configuring and initializing forward nonlinear model ...
 *******

 Vertical S-coordinate System, Grid 01:

 level   S-coord     Cs-curve   Z   at hmin       at hc    half way     at hmax

    24   0.0000000   0.0000000        0.000       0.000       0.000       0.000
    23  -0.0416667  -0.0070910       -7.073      -0.833      -7.073      -7.073
    22  -0.0833333  -0.0166100      -16.283      -1.667     -16.283     -16.283
    21  -0.1250000  -0.0293939      -28.367      -2.500     -28.367     -28.367
    20  -0.1666667  -0.0464904      -44.245      -3.333     -44.245     -44.245
    19  -0.2083333  -0.0691564      -65.024      -4.167     -65.024     -65.024
    18  -0.2500000  -0.0988006      -91.945      -5.000     -91.945     -91.945
    17  -0.2916667  -0.1368390     -126.252      -5.833    -126.252    -126.252
    16  -0.3333333  -0.1844295     -168.965      -6.667    -168.965    -168.965
    15  -0.3750000  -0.2420900     -220.539      -7.500    -220.539    -220.539
    14  -0.4166667  -0.3092749     -280.495      -8.333    -280.495    -280.495
    13  -0.4583333  -0.3840806     -347.158      -9.167    -347.158    -347.158
    12  -0.5000000  -0.4632901     -417.695     -10.000    -417.695    -417.695
    11  -0.5416667  -0.5428696     -488.559     -10.833    -488.559    -488.559
    10  -0.5833333  -0.6187957     -556.207     -11.667    -556.207    -556.207
     9  -0.6250000  -0.6878825     -617.837     -12.500    -617.837    -617.837
     8  -0.6666667  -0.7482795     -671.819     -13.333    -671.819    -671.819
     7  -0.7083333  -0.7995171     -717.742     -14.167    -717.742    -717.742
     6  -0.7500000  -0.8422148     -756.149     -15.000    -756.149    -756.149
     5  -0.7916667  -0.8776604     -788.174     -15.833    -788.174    -788.174
     4  -0.8333333  -0.9074311     -815.206     -16.667    -815.206    -815.206
     3  -0.8750000  -0.9331337     -838.658     -17.500    -838.658    -838.658
     2  -0.9166667  -0.9562645     -859.846     -18.333    -859.846    -859.846
     1  -0.9583333  -0.9781595     -879.947     -19.167    -879.947    -879.947
     0  -1.0000000  -1.0000000     -900.000     -20.000    -900.000    -900.000

 Time Splitting Weights for Grid 01:    ndtfast =  30    nfast =  42
 ==================================

    Primary            Secondary            Accumulated to Current Step

  1-0.0008094437383769 0.0333333333333333-0.0008094437383769 0.0333333333333333
  2-0.0014053566728197 0.0333603147912792-0.0022148004111966 0.0666936481246126
  3-0.0017877524645903 0.0334071600137066-0.0040025528757869 0.1001008081383191
  4-0.0019566842408176 0.0334667517625262-0.0059592371166045 0.1335675599008453
  5-0.0019122901320372 0.0335319745705535-0.0078715272486418 0.1670995344713988
  6-0.0016548570247459 0.0335957175749547-0.0095263842733877 0.2006952520463536
  7-0.0011849025289723 0.0336508794757796-0.0107112868023600 0.2343461315221332
  8-0.0005032751608632 0.0336903762267453-0.0112145619632232 0.2680365077488785
  9 0.0003887272597151 0.0337071520654408-0.0108258347035081 0.3017436598143193
 10 0.0014892209965583 0.0336941944901169-0.0093366137069498 0.3354378543044362
 11 0.0027955815694920 0.0336445537902317-0.0065410321374578 0.3690824080946679
 12 0.0043042707117221 0.0335513677379153-0.0022367614257357 0.4026337758325832
 13 0.0060106451121704 0.0334078920475245 0.0037738836864347 0.4360416678801077
 14 0.0079087469427945 0.0332075372104522 0.0116826306292292 0.4692492050905599
 15 0.0099910761708919 0.0329439123123590 0.0216737068001212 0.5021931174029189
 16 0.0122483446563884 0.0326108764399960 0.0339220514565096 0.5348039938429149
 17 0.0146692120341107 0.0322025982847830 0.0485912634906203 0.5670065921276979
 18 0.0172400033810439 0.0317136245503127 0.0658312668716641 0.5987202166780106
 19 0.0199444086685725 0.0311389577709445 0.0857756755402366 0.6298591744489551
 20 0.0227631639997064 0.0304741441486588 0.1085388395399430 0.6603333185976139
 21 0.0256737146312910 0.0297153720153352 0.1342125541712340 0.6900486906129492
 22 0.0286498597812016 0.0288595815276255 0.1628624139524356 0.7189082721405747
 23 0.0316613792205220 0.0279045862015855 0.1945237931729576 0.7468128583421603
 24 0.0346736416507075 0.0268492068942348 0.2291974348236650 0.7736620652363950
 25 0.0376471948657328 0.0256934188392112 0.2668446296893978 0.7993554840756062
 26 0.0405373376992232 0.0244385123436867 0.3073819673886211 0.8237939964192930
 27 0.0432936737565710 0.0230872677537126 0.3506756411451921 0.8468812641730056
 28 0.0458596469320356 0.0216441452951603 0.3965352880772277 0.8685254094681658
 29 0.0481720587108284 0.0201154903974257 0.4447073467880561 0.8886408998655916
 30 0.0501605672561820 0.0185097551070648 0.4948679140442381 0.9071506549726563
 31 0.0517471682814030 0.0168377361985254 0.5466150823256412 0.9239883911711817
 32 0.0528456577069106 0.0151128305891453 0.5994607400325518 0.9391012217603270
 33 0.0533610761022577 0.0133513086655816 0.6528218161348095 0.9524525304259086
 34 0.0531891349131379 0.0115726061288397 0.7060109510479474 0.9640251365547483
 35 0.0522156244733761 0.0097996349650684 0.7582265755213236 0.9738247715198167
 36 0.0503158038019030 0.0080591141492892 0.8085423793232266 0.9818838856691059
 37 0.0473537721847153 0.0063819206892258 0.8558961515079420 0.9882658063583317
 38 0.0431818225418188 0.0048034616164019 0.8990779740497608 0.9930692679747336
 39 0.0376397765791564 0.0033640675316746 0.9367177506289172 0.9964333355064082
 40 0.0305543017255206 0.0021094083123694 0.9672720523544378 0.9985427438187776
 41 0.0217382098544505 0.0010909315881854 0.9890102622088882 0.9996336754069630
 42 0.0109897377911118 0.0003663245930371 1.0000000000000000 1.0000000000000000

 ndtfast, nfast =   30  42   nfast/ndtfast =  1.40000

 Centers of gravity and integrals (values must be 1, 1, approx 1/2, 1, 1):

    1.000000000000 1.047601458608 0.523800729304 1.000000000000 1.000000000000

 Power filter parameters, Fgamma, gamma =  0.28400   0.18933

 Metrics information for Grid 01:
 ===============================

 Minimum X-grid spacing, DXmin =  5.73531111E+00 km
 Maximum X-grid spacing, DXmax =  1.14640003E+01 km
 Minimum Y-grid spacing, DYmin =  1.11195276E+01 km
 Maximum Y-grid spacing, DYmax =  1.11195276E+01 km
 Minimum Z-grid spacing, DZmin =  2.10970621E+00 m
 Maximum Z-grid spacing, DZmax =  7.08632913E+01 m

 Minimum barotropic Courant Number =  1.17722787E-01
 Maximum barotropic Courant Number =  1.84340982E-01
 Maximum Coriolis   Courant Number =  4.31011833E-02


 Basin information for Grid 01:

 Maximum grid stiffness ratios:  rx0 =   0.000000E+00 (Beckmann and Haidvogel)
                                 rx1 =   3.131396E+01 (Haney)

 Initial basin volumes: TotVolume =  3.7425518734E+14 m3
                        MinVolume =  1.3588957408E+08 m3
                        MaxVolume =  8.9901498541E+09 m3
                          Max/Min =  6.6157760188E+01

 Node #  1 (pid=    6691) is active.
 Node #  2 (pid=    6692) is active.
 Node #  3 (pid=    6693) is active.
 Node #  4 (pid=    6694) is active.
 Node #  5 (pid=    6695) is active.
 Node #  6 (pid=    6696) is active.
 Node #  7 (pid=    6697) is active.
 NL ROMS/TOMS: started time-stepping: (Grid: 01 TimeSteps: 00000001 - 03155760)


   STEP   Day HH:MM:SS  KINETIC_ENRG   POTEN_ENRG    TOTAL_ENRG    NET_VOLUME
          C => (i,j,k)       Cu            Cv            Cw         Max Speed

      0     0 00:00:00  0.000000E+00  4.488769E+03  4.488769E+03  3.742552E+14
           (00,000,00)  0.000000E+00  0.000000E+00  0.000000E+00  0.000000E+00
      DEF_HIS   - creating history file, Grid 01: ocean_his_0001.nc
      WRT_HIS   - wrote history  fields (Index=1,1) into time record = 0000001
      1     0 00:05:00  8.610691E-10  4.488769E+03  4.488769E+03  3.742552E+14
           (13,041,24)  2.380375E-07  5.880071E-06  0.000000E+00  2.218975E-04
      2     0 00:10:00  2.186971E-09  4.488769E+03  4.488769E+03  3.742552E+14
           (51,040,24)  7.541154E-08  6.870913E-06  3.950453E-04  2.794919E-04
      3     0 00:15:00  3.825997E-09  4.488769E+03  4.488769E+03  3.742552E+14
           (51,038,24)  7.070933E-08  8.218972E-06  3.077618E-04  3.216492E-04
      4     0 00:20:00  5.615893E-09  4.488770E+03  4.488770E+03  3.742552E+14
           (51,036,24)  7.367555E-08  9.339231E-06  2.788465E-04  3.557848E-04
      5     0 00:25:00  7.421587E-09  4.488770E+03  4.488770E+03  3.742552E+14
           (51,033,24)  6.859004E-08  1.030749E-05  2.716441E-04  3.822486E-04
      6     0 00:30:00  9.121339E-09  4.488771E+03  4.488771E+03  3.742552E+14
           (51,031,24)  7.089617E-08  1.079606E-05  2.756620E-04  4.061655E-04
      7     0 00:35:00  1.062439E-08  4.488771E+03  4.488771E+03  3.742552E+14
           (51,029,24)  7.106489E-08  1.105810E-05  2.811070E-04  4.249228E-04
      8     0 00:40:00  1.185945E-08  4.488772E+03  4.488772E+03  3.742552E+14
           (51,028,24)  7.946684E-08  1.177408E-05  2.906409E-04  4.364169E-04
      9     0 00:45:00  1.278943E-08  4.488772E+03  4.488772E+03  3.742552E+14
           (51,026,24)  7.523582E-08  1.187459E-05  3.053645E-04  4.401733E-04
     10     0 00:50:00  1.339633E-08  4.488773E+03  4.488773E+03  3.742552E+14
           (51,024,24)  6.785027E-08  1.169383E-05  3.197251E-04  4.386273E-04
     11     0 00:55:00  1.371057E-08  4.488773E+03  4.488773E+03  3.742552E+14
           (51,022,24)  5.590681E-08  1.122382E-05  3.359852E-04  4.350603E-04
     12     0 01:00:00  1.381841E-08  4.488774E+03  4.488774E+03  3.742552E+14
           (51,020,24)  4.028225E-08  1.049510E-05  3.455710E-04  4.258215E-04
     13     0 01:05:00  1.394490E-08  4.488774E+03  4.488774E+03  3.742552E+14
           (51,019,24)  3.253275E-08  1.143302E-05  3.325561E-04  4.238613E-04
     14     0 01:10:00  1.433416E-08  4.488775E+03  4.488775E+03  3.742552E+14
           (51,017,24)  2.953384E-08  1.285877E-05  2.925561E-04  4.767853E-04
     15     0 01:15:00  1.498223E-08  4.488775E+03  4.488775E+03  3.742552E+14
           (51,015,24)  3.600568E-08  1.429777E-05  3.096278E-04  5.566965E-04
     16     0 01:20:00  1.582117E-08  4.488776E+03  4.488776E+03  3.742552E+14
           (51,013,24)  5.762572E-08  1.512162E-05  3.123877E-04  6.176021E-04
     17     0 01:25:00  1.679663E-08  4.488776E+03  4.488776E+03  3.742552E+14
           (51,012,24)  8.799410E-08  1.779160E-05  3.447359E-04  6.855750E-04
     18     0 01:30:00  1.783665E-08  4.488777E+03  4.488777E+03  3.742552E+14
           (51,010,24)  1.348861E-07  1.821959E-05  3.517481E-04  7.419245E-04
     19     0 01:35:00  1.885956E-08  4.488777E+03  4.488777E+03  3.742552E+14
           (51,009,24)  1.989598E-07  2.059221E-05  3.947551E-04  8.058931E-04
     20     0 01:40:00  1.979452E-08  4.488778E+03  4.488778E+03  3.742552E+14
           (51,008,24)  2.652010E-07  2.248490E-05  4.161596E-04  8.491471E-04
     21     0 01:45:00  2.057455E-08  4.488778E+03  4.488778E+03  3.742552E+14
           (51,006,24)  3.595835E-07  2.182310E-05  4.687468E-04  8.870954E-04
     22     0 01:50:00  2.112566E-08  4.488779E+03  4.488779E+03  3.742552E+14
           (51,005,24)  4.541503E-07  2.324445E-05  5.232847E-04  9.213325E-04
     23     0 01:55:00  2.132622E-08  4.488779E+03  4.488779E+03  3.742552E+14
           (51,003,24)  5.180337E-07  1.925120E-05  6.133728E-04  9.322605E-04
     24     0 02:00:00  2.087015E-08  4.488780E+03  4.488780E+03  3.742552E+14
           (50,001,24)  4.917729E-07  6.282941E-06  7.819440E-04  8.979017E-04
     25     0 02:05:00  1.944805E-08  4.488780E+03  4.488780E+03  3.742552E+14
           (51,001,24)  1.103699E-07  6.813420E-06  1.129753E-03  7.829241E-04
     26     0 02:10:00  1.746058E-08  4.488781E+03  4.488781E+03  3.742552E+14
           (50,001,24)  1.292682E-06  4.301863E-06  1.139644E-03  7.051049E-04
     27     0 02:15:00  1.548840E-08  4.488781E+03  4.488781E+03  3.742552E+14
           (47,001,24)  4.352547E-06  7.098532E-07  6.535158E-04  6.166477E-04
     28     0 02:20:00  1.360315E-08  4.488782E+03  4.488782E+03  3.742552E+14
           (45,003,24)  2.237303E-06  1.028419E-06  4.641037E-04  5.302394E-04
     29     0 02:25:00  1.183571E-08  4.488782E+03  4.488782E+03  3.742552E+14
           (11,001,24)  4.124651E-06  9.295841E-08  4.460365E-04  4.563463E-04
     30     0 02:30:00  1.027957E-08  4.488782E+03  4.488782E+03  3.742552E+14
           (36,006,24)  3.610793E-06  1.192566E-06  3.186104E-04  3.959993E-04
     31     0 02:35:00  8.994733E-09  4.488783E+03  4.488783E+03  3.742552E+14
           (51,003,24)  1.150742E-07  1.858573E-06  3.047066E-04  3.593584E-04
     32     0 02:40:00  8.035243E-09  4.488783E+03  4.488783E+03  3.742552E+14
           (46,004,24)  5.607109E-06  5.320200E-07  2.904021E-04  3.978870E-04
     33     0 02:45:00  7.434365E-09  4.488784E+03  4.488784E+03  3.742552E+14
           (50,001,24)  3.185021E-06  7.854275E-07  3.001196E-04  4.550174E-04
     34     0 02:50:00  7.202956E-09  4.488784E+03  4.488784E+03  3.742552E+14
           (51,002,24)  1.984711E-07  1.659151E-06  2.951525E-04  5.096463E-04
     35     0 02:55:00  7.311777E-09  4.488784E+03  4.488784E+03  3.742552E+14
           (49,001,24)  4.508734E-06  6.922811E-07  2.807043E-04  5.566678E-04
     36     0 03:00:00  7.652020E-09  4.488785E+03  4.488785E+03  3.742552E+14
           (45,001,24)  1.088892E-05  7.297463E-07  2.821430E-04  5.930170E-04
     37     0 03:05:00  8.010107E-09  4.488785E+03  4.488785E+03  3.742552E+14
           (43,001,24)  1.294161E-05  7.988298E-07  2.577546E-04  6.088055E-04
     38     0 03:10:00  8.174758E-09  4.488785E+03  4.488785E+03  3.742552E+14
           (41,001,24)  1.459207E-05  8.711744E-07  2.515848E-04  6.023900E-04
     39     0 03:15:00  8.079136E-09  4.488785E+03  4.488785E+03  3.742552E+14
           (39,001,24)  1.582624E-05  9.930794E-07  2.393316E-04  5.841301E-04
     40     0 03:20:00  7.744938E-09  4.488785E+03  4.488785E+03  3.742552E+14
           (38,001,24)  1.531669E-05  1.120963E-06  2.187592E-04  5.606959E-04
     41     0 03:25:00  7.213590E-09  4.488786E+03  4.488786E+03  3.742552E+14
           (01,041,24)  2.228382E-06  9.825203E-06  2.090357E-04  5.308417E-04
     42     0 03:30:00  6.560309E-09  4.488786E+03  4.488786E+03  3.742552E+14
           (01,041,24)  2.316466E-06  9.609460E-06  2.046001E-04  4.958065E-04
     43     0 03:35:00  5.884870E-09  4.488786E+03  4.488786E+03  3.742552E+14
           (01,041,24)  2.405182E-06  9.283940E-06  1.974548E-04  4.533299E-04
     44     0 03:40:00  5.295423E-09  4.488786E+03  4.488786E+03  3.742552E+14
           (01,041,24)  2.496485E-06  8.802498E-06  1.876677E-04  4.023749E-04
     45     0 03:45:00  4.910232E-09  4.488786E+03  4.488786E+03  3.742552E+14
           (01,041,24)  2.590628E-06  8.066062E-06  1.767963E-04  3.556374E-04
     46     0 03:50:00  4.873013E-09  4.488786E+03  4.488786E+03  3.742552E+14
           (01,041,24)  2.685796E-06  6.865074E-06  1.656273E-04  3.478546E-04
     47     0 03:55:00  5.373416E-09  4.488786E+03  4.488786E+03  3.742552E+14
           (01,041,24)  2.778939E-06  4.941524E-06  1.517094E-04  3.768915E-04
     48     0 04:00:00  6.620090E-09  4.488785E+03  4.488785E+03  3.742552E+14
           (01,041,24)  2.867724E-06  2.291586E-06  1.278533E-04  4.025987E-04
     49     0 04:05:00  8.635689E-09  4.488785E+03  4.488785E+03  3.742552E+14
           (02,001,24)  3.542266E-07  1.998063E-07  1.312746E-04  4.244108E-04
     50     0 04:10:00  1.102884E-08  4.488784E+03  4.488784E+03  3.742552E+14
           (04,001,24)  8.727388E-07  6.585559E-07  1.862641E-04  4.857918E-04
     51     0 04:15:00  1.329134E-08  4.488784E+03  4.488784E+03  3.742552E+14
           (01,001,24)  8.013651E-07  4.535925E-07  2.264847E-04  5.084247E-04
     52     0 04:20:00  1.528179E-08  4.488783E+03  4.488783E+03  3.742552E+14
           (02,001,24)  1.862469E-06  5.057290E-07  2.295097E-04  4.947965E-04
     53     0 04:25:00  1.704069E-08  4.488783E+03  4.488783E+03  3.742552E+14
           (04,002,24)  5.323043E-06  1.033308E-06  2.369796E-04  4.738528E-04
     54     0 04:30:00  1.855711E-08  4.488782E+03  4.488782E+03  3.742552E+14
           (06,001,24)  4.636599E-06  1.254515E-06  2.550798E-04  4.881439E-04
     55     0 04:35:00  1.983661E-08  4.488781E+03  4.488781E+03  3.742552E+14
           (03,001,24)  3.101537E-06  1.014026E-06  2.527166E-04  5.244488E-04
     56     0 04:40:00  2.089623E-08  4.488781E+03  4.488781E+03  3.742552E+14
           (01,002,24)  2.487137E-06  1.563170E-06  2.326718E-04  5.553172E-04
     57     0 04:45:00  2.176539E-08  4.488780E+03  4.488780E+03  3.742552E+14
           (02,001,24)  2.845174E-06  9.524322E-07  2.245203E-04  5.785079E-04
     58     0 04:50:00  2.249172E-08  4.488779E+03  4.488779E+03  3.742552E+14
           (03,001,24)  3.154375E-06  1.349948E-06  2.012235E-04  5.904290E-04
     59     0 04:55:00  2.314328E-08  4.488779E+03  4.488779E+03  3.742552E+14
           (03,001,24)  3.210335E-06  1.474272E-06  1.771361E-04  5.964877E-04
     60     0 05:00:00  2.381072E-08  4.488778E+03  4.488778E+03  3.742552E+14
           (10,019,24)  4.998713E-06  1.011421E-05  1.701238E-04  5.946456E-04
     61     0 05:05:00  2.459123E-08  4.488777E+03  4.488777E+03  3.742552E+14
           (13,017,24)  5.499405E-06  8.658953E-06  1.794558E-04  5.897070E-04
     62     0 05:10:00  2.552279E-08  4.488776E+03  4.488776E+03  3.742552E+14
           (16,016,24)  5.199461E-06  8.494222E-06  1.815461E-04  5.797304E-04
     63     0 05:15:00  2.652527E-08  4.488776E+03  4.488776E+03  3.742552E+14
           (29,014,24)  5.850338E-06  6.927854E-06  2.006645E-04  5.643963E-04
     64     0 05:20:00  2.744793E-08  4.488775E+03  4.488775E+03  3.742552E+14
           (33,012,24)  5.713065E-06  5.770532E-06  2.237945E-04  5.500792E-04
     65     0 05:25:00  2.816622E-08  4.488774E+03  4.488774E+03  3.742552E+14
           (37,011,24)  5.391648E-06  6.571575E-06  2.471531E-04  5.842156E-04
     66     0 05:30:00  2.860116E-08  4.488773E+03  4.488773E+03  3.742552E+14
           (51,010,24)  3.624353E-06  7.671624E-06  2.760179E-04  6.173543E-04
     67     0 05:35:00  2.870489E-08  4.488773E+03  4.488773E+03  3.742552E+14
           (51,008,24)  3.845335E-06  6.960442E-06  3.191076E-04  6.491079E-04
     68     0 05:40:00  2.846390E-08  4.488772E+03  4.488772E+03  3.742552E+14
           (51,007,24)  3.846664E-06  8.545020E-06  3.579942E-04  6.818380E-04
     69     0 05:45:00  2.788423E-08  4.488771E+03  4.488771E+03  3.742552E+14
           (51,005,24)  3.832119E-06  7.734196E-06  4.101844E-04  7.179697E-04
     70     0 05:50:00  2.695643E-08  4.488771E+03  4.488771E+03  3.742552E+14
           (51,004,24)  3.723832E-06  9.074268E-06  4.795820E-04  7.581326E-04
     71     0 05:55:00  2.562725E-08  4.488770E+03  4.488770E+03  3.742552E+14
           (51,001,24)  1.758445E-06  7.022791E-07  6.477856E-04  7.915505E-04
     72     0 06:00:00  2.383614E-08  4.488769E+03  4.488769E+03  3.742552E+14
           (51,001,24)  2.060807E-06  1.336476E-06  8.676932E-04  7.985597E-04
     73     0 06:05:00  2.164668E-08  4.488769E+03  4.488769E+03  3.742552E+14
           (51,001,24)  2.441262E-06  1.127536E-06  9.551398E-04  7.759908E-04
     74     0 06:10:00  1.931148E-08  4.488768E+03  4.488768E+03  3.742552E+14
           (49,001,24)  6.575269E-06  2.498743E-07  8.640385E-04  7.311411E-04
     75     0 06:15:00  1.707540E-08  4.488768E+03  4.488768E+03  3.742552E+14
           (50,001,24)  7.475760E-06  1.119037E-06  6.284812E-04  6.573743E-04
     76     0 06:20:00  1.498321E-08  4.488767E+03  4.488767E+03  3.742552E+14
           (44,003,24)  1.122624E-05  3.101970E-06  4.140841E-04  5.632832E-04
     77     0 06:25:00  1.298048E-08  4.488767E+03  4.488767E+03  3.742552E+14
           (40,004,24)  1.148445E-05  4.977126E-06  3.466632E-04  4.633619E-04
     78     0 06:30:00  1.106901E-08  4.488766E+03  4.488766E+03  3.742552E+14
           (38,006,24)  1.125094E-05  5.654934E-06  2.900716E-04  4.823998E-04
     79     0 06:35:00  9.292975E-09  4.488766E+03  4.488766E+03  3.742552E+14
           (36,007,24)  1.227247E-05  7.166425E-06  2.538522E-04  5.602208E-04
     80     0 06:40:00  7.698903E-09  4.488766E+03  4.488766E+03  3.742552E+14
           (51,041,24)  5.414676E-06  3.046610E-06  2.304495E-04  6.357795E-04
     81     0 06:45:00  6.341227E-09  4.488765E+03  4.488765E+03  3.742552E+14
           (51,041,24)  5.529202E-06  3.232615E-06  2.330397E-04  7.027420E-04
     82     0 06:50:00  5.271837E-09  4.488765E+03  4.488765E+03  3.742552E+14
           (51,041,24)  5.648059E-06  3.451978E-06  2.333676E-04  7.619905E-04
     83     0 06:55:00  4.517735E-09  4.488765E+03  4.488765E+03  3.742552E+14
           (51,041,24)  5.774683E-06  3.730119E-06  2.324417E-04  8.127369E-04
     84     0 07:00:00  4.063310E-09  4.488765E+03  4.488765E+03  3.742552E+14
           (50,001,24)  1.186932E-05  3.333824E-06  2.447710E-04  8.469770E-04
     85     0 07:05:00  3.861117E-09  4.488765E+03  4.488765E+03  3.742552E+14
           (50,001,24)  1.160878E-05  3.392280E-06  2.463972E-04  8.622950E-04
     86     0 07:10:00  3.875707E-09  4.488764E+03  4.488764E+03  3.742552E+14
           (01,041,24)  7.662791E-06  6.422083E-06  2.361283E-04  8.596109E-04
     87     0 07:15:00  4.105088E-09  4.488764E+03  4.488764E+03  3.742552E+14
           (01,041,24)  7.842497E-06  6.759953E-06  2.537780E-04  8.448378E-04
     88     0 07:20:00  4.542945E-09  4.488764E+03  4.488764E+03  3.742552E+14
           (01,041,24)  8.020942E-06  7.092225E-06  2.705638E-04  8.253462E-04
     89     0 07:25:00  5.140506E-09  4.488764E+03  4.488764E+03  3.742552E+14
           (01,041,24)  8.198364E-06  7.440280E-06  2.866673E-04  8.090253E-04
     90     0 07:30:00  5.815605E-09  4.488764E+03  4.488764E+03  3.742552E+14
           (01,041,24)  8.372860E-06  7.833126E-06  3.026114E-04  7.982967E-04
     91     0 07:35:00  6.477036E-09  4.488764E+03  4.488764E+03  3.742552E+14
           (01,041,24)  8.542223E-06  8.321646E-06  3.186591E-04  7.878752E-04
     92     0 07:40:00  7.045397E-09  4.488764E+03  4.488764E+03  3.742552E+14
           (01,041,24)  8.702037E-06  8.985261E-06  3.357441E-04  7.705378E-04
     93     0 07:45:00  7.480680E-09  4.488765E+03  4.488765E+03  3.742552E+14
           (01,041,24)  8.852435E-06  9.923442E-06  3.545511E-04  7.435607E-04
     94     0 07:50:00  7.808107E-09  4.488765E+03  4.488765E+03  3.742552E+14
           (01,041,24)  8.999164E-06  1.123006E-05  3.774516E-04  7.064977E-04
     95     0 07:55:00  8.113400E-09  4.488765E+03  4.488765E+03  3.742552E+14
           (01,041,24)  9.147789E-06  1.291647E-05  4.073987E-04  7.006841E-04
     96     0 08:00:00  8.479701E-09  4.488765E+03  4.488765E+03  3.742552E+14
           (01,041,24)  9.298943E-06  1.482004E-05  4.438293E-04  7.487813E-04
     97     0 08:05:00  8.894606E-09  4.488766E+03  4.488766E+03  3.742552E+14
           (01,041,24)  9.446089E-06  1.657990E-05  4.811351E-04  8.004999E-04
     98     0 08:10:00  9.252177E-09  4.488766E+03  4.488766E+03  3.742552E+14
           (01,041,24)  9.586610E-06  1.778591E-05  5.102709E-04  8.339693E-04
     99     0 08:15:00  9.508832E-09  4.488767E+03  4.488767E+03  3.742552E+14
           (01,041,24)  9.721234E-06  1.825741E-05  5.279366E-04  8.447375E-04
    100     0 08:20:00  9.789843E-09  4.488767E+03  4.488767E+03  3.742552E+14
           (01,041,24)  9.849399E-06  1.816448E-05  5.376249E-04  8.465807E-04
    101     0 08:25:00  1.027316E-08  4.488768E+03  4.488768E+03  3.742552E+14
           (01,041,24)  9.970799E-06  1.788345E-05  5.403473E-04  8.433899E-04
    102     0 08:30:00  1.104394E-08  4.488768E+03  4.488768E+03  3.742552E+14
           (01,041,24)  1.008694E-05  1.776360E-05  5.335533E-04  8.453583E-04
    103     0 08:35:00  1.209768E-08  4.488769E+03  4.488769E+03  3.742552E+14
           (01,041,24)  1.020101E-05  1.795583E-05  5.188917E-04  8.564024E-04
    104     0 08:40:00  1.338244E-08  4.488769E+03  4.488769E+03  3.742552E+14
           (01,041,24)  1.031650E-05  1.838158E-05  5.028125E-04  8.739834E-04
    105     0 08:45:00  1.480849E-08  4.488770E+03  4.488770E+03  3.742552E+14
           (01,041,24)  1.043609E-05  1.887179E-05  4.904949E-04  8.932520E-04
    106     0 08:50:00  1.626340E-08  4.488770E+03  4.488770E+03  3.742552E+14
           (51,041,24)  8.106499E-06  1.468438E-05  4.972445E-04  9.114998E-04
    107     0 08:55:00  1.763415E-08  4.488771E+03  4.488771E+03  3.742552E+14
           (51,041,24)  8.194605E-06  1.440486E-05  5.077590E-04  9.284386E-04
    108     0 09:00:00  1.882205E-08  4.488771E+03  4.488771E+03  3.742552E+14
           (51,041,24)  8.293089E-06  1.413948E-05  5.140552E-04  9.439328E-04
    109     0 09:05:00  1.974105E-08  4.488772E+03  4.488772E+03  3.742552E+14
           (51,041,24)  8.400157E-06  1.388258E-05  5.164974E-04  9.571147E-04
    110     0 09:10:00  2.030438E-08  4.488772E+03  4.488772E+03  3.742552E+14
           (51,041,24)  8.513167E-06  1.362916E-05  5.160292E-04  9.672995E-04
    111     0 09:15:00  2.043027E-08  4.488773E+03  4.488773E+03  3.742552E+14
           (51,041,24)  8.631445E-06  1.339837E-05  5.137468E-04  9.746041E-04
    112     0 09:20:00  2.008098E-08  4.488773E+03  4.488773E+03  3.742552E+14
           (51,041,24)  8.757931E-06  1.321343E-05  5.097065E-04  9.793090E-04
    113     0 09:25:00  1.929756E-08  4.488774E+03  4.488774E+03  3.742552E+14
           (01,041,24)  1.164743E-05  2.038496E-05  5.031474E-04  9.813423E-04
    114     0 09:30:00  1.818720E-08  4.488774E+03  4.488774E+03  3.742552E+14
           (01,041,24)  1.184167E-05  2.012148E-05  5.110278E-04  9.805655E-04
    115     0 09:35:00  1.688047E-08  4.488775E+03  4.488775E+03  3.742552E+14
           (01,041,24)  1.204747E-05  1.974564E-05  5.219219E-04  9.771458E-04
    116     0 09:40:00  1.549701E-08  4.488776E+03  4.488776E+03  3.742552E+14
           (01,041,24)  1.225957E-05  1.927645E-05  5.348266E-04  9.717117E-04
    117     0 09:45:00  1.412173E-08  4.488776E+03  4.488776E+03  3.742552E+14
           (01,041,24)  1.247175E-05  1.875193E-05  5.478235E-04  9.653208E-04
    118     0 09:50:00  1.278679E-08  4.488776E+03  4.488776E+03  3.742552E+14
           (01,041,24)  1.267929E-05  1.822336E-05  5.594141E-04  9.592608E-04
    119     0 09:55:00  1.148028E-08  4.488777E+03  4.488777E+03  3.742552E+14
           (01,041,24)  1.287961E-05  1.774382E-05  5.693201E-04  9.547581E-04
    120     0 10:00:00  1.019567E-08  4.488777E+03  4.488777E+03  3.742552E+14
           (01,041,24)  1.307233E-05  1.735325E-05  5.780454E-04  9.526731E-04
    121     0 10:05:00  8.983177E-09  4.488778E+03  4.488778E+03  3.742552E+14
           (01,041,24)  1.325833E-05  1.706987E-05  5.860178E-04  9.533571E-04
    122     0 10:10:00  7.926224E-09  4.488778E+03  4.488778E+03  3.742552E+14
           (01,041,24)  1.343694E-05  1.688923E-05  5.930707E-04  9.566366E-04
    123     0 10:15:00  7.044773E-09  4.488778E+03  4.488778E+03  3.742552E+14
           (01,041,24)  1.360946E-05  1.679079E-05  5.979066E-04  9.620198E-04
    124     0 10:20:00  6.256850E-09  4.488778E+03  4.488778E+03  3.742552E+14
           (01,041,24)  1.377487E-05  1.674807E-05  5.998339E-04  9.687853E-04
    125     0 10:25:00  5.472898E-09  4.488779E+03  4.488779E+03  3.742552E+14
           (01,041,24)  1.393428E-05  1.674249E-05  5.986559E-04  9.763883E-04
    126     0 10:30:00  4.703560E-09  4.488779E+03  4.488779E+03  3.742552E+14
           (01,041,24)  1.408919E-05  1.677131E-05  5.957658E-04  9.846373E-04
    127     0 10:35:00  4.054778E-09  4.488779E+03  4.488779E+03  3.742552E+14
           (01,041,24)  1.424072E-05  1.684483E-05  5.931580E-04  9.936940E-04
    128     0 10:40:00  3.655729E-09  4.488779E+03  4.488779E+03  3.742552E+14
           (01,041,24)  1.438889E-05  1.697260E-05  5.920654E-04  1.003786E-03
    129     0 10:45:00  3.611413E-09  4.488779E+03  4.488779E+03  3.742552E+14
           (01,041,24)  1.453312E-05  1.714975E-05  5.922048E-04  1.014875E-03
    130     0 10:50:00  3.983436E-09  4.488779E+03  4.488779E+03  3.742552E+14
           (01,041,24)  1.467318E-05  1.735409E-05  5.922602E-04  1.026544E-03
    131     0 10:55:00  4.777631E-09  4.488779E+03  4.488779E+03  3.742552E+14
           (01,041,24)  1.480957E-05  1.755466E-05  5.909396E-04  1.038153E-03
    132     0 11:00:00  5.945681E-09  4.488778E+03  4.488778E+03  3.742552E+14
           (01,041,24)  1.494362E-05  1.772152E-05  5.875711E-04  1.049060E-03
    133     0 11:05:00  7.405332E-09  4.488778E+03  4.488778E+03  3.742552E+14
           (01,041,24)  1.507762E-05  1.782859E-05  5.822072E-04  1.058718E-03
    134     0 11:10:00  9.065644E-09  4.488778E+03  4.488778E+03  3.742552E+14
           (01,041,24)  1.521443E-05  1.785201E-05  5.753767E-04  1.066653E-03
    135     0 11:15:00  1.083597E-08  4.488778E+03  4.488778E+03  3.742552E+14
           (01,041,24)  1.535666E-05  1.776952E-05  5.677555E-04  1.072461E-03
    136     0 11:20:00  1.261686E-08  4.488777E+03  4.488777E+03  3.742552E+14
           (01,041,24)  1.550615E-05  1.756151E-05  5.599068E-04  1.075822E-03
    137     0 11:25:00  1.430005E-08  4.488777E+03  4.488777E+03  3.742552E+14
           (01,041,24)  1.566372E-05  1.720950E-05  5.522217E-04  1.076486E-03
    138     0 11:30:00  1.579367E-08  4.488777E+03  4.488777E+03  3.742552E+14
           (01,041,24)  1.582920E-05  1.669111E-05  5.448853E-04  1.074187E-03
    139     0 11:35:00  1.705303E-08  4.488776E+03  4.488776E+03  3.742552E+14
           (01,041,24)  1.600158E-05  1.597595E-05  5.377974E-04  1.068627E-03
    140     0 11:40:00  1.809416E-08  4.488776E+03  4.488776E+03  3.742552E+14
           (01,041,24)  1.617930E-05  1.502918E-05  5.304730E-04  1.059642E-03
    141     0 11:45:00  1.898769E-08  4.488775E+03  4.488775E+03  3.742552E+14
           (01,041,24)  1.636087E-05  1.382818E-05  5.220669E-04  1.047631E-03
    142     0 11:50:00  1.983403E-08  4.488775E+03  4.488775E+03  3.742552E+14
           (01,041,24)  1.654540E-05  1.239316E-05  5.116334E-04  1.034051E-03
    143     0 11:55:00  2.071719E-08  4.488774E+03  4.488774E+03  3.742552E+14
           (01,041,24)  1.673256E-05  1.082133E-05  4.986580E-04  1.021532E-03
    144     0 12:00:00  2.165008E-08  4.488774E+03  4.488774E+03  3.742552E+14
           (01,041,24)  1.692177E-05  9.300399E-06  4.836863E-04  1.013061E-03
    145     0 12:05:00  2.255397E-08  4.488773E+03  4.488773E+03  3.742552E+14
           (01,041,24)  1.711315E-05  8.075454E-06  4.689442E-04  1.022548E-03
    146     0 12:10:00  2.331315E-08  4.488772E+03  4.488772E+03  3.742552E+14
           (01,041,24)  1.730680E-05  7.365928E-06  4.587830E-04  1.043040E-03
    147     0 12:15:00  2.387465E-08  4.488771E+03  4.488771E+03  3.742552E+14
           (01,041,24)  1.750331E-05  7.266498E-06  4.581023E-04  1.055646E-03
    148     0 12:20:00  2.428640E-08  4.488771E+03  4.488771E+03  3.742552E+14
           (01,041,24)  1.770300E-05  7.692607E-06  4.695377E-04  1.061179E-03
    149     0 12:25:00  2.462625E-08  4.488770E+03  4.488770E+03  3.742552E+14
           (01,041,24)  1.790531E-05  8.414541E-06  4.908827E-04  1.063324E-03
    150     0 12:30:00  2.491932E-08  4.488769E+03  4.488769E+03  3.742552E+14
           (01,041,24)  1.810910E-05  9.167377E-06  5.157746E-04  1.070462E-03
    151     0 12:35:00  2.514192E-08  4.488769E+03  4.488769E+03  3.742552E+14
           (01,041,24)  1.831240E-05  9.773327E-06  5.378746E-04  1.087330E-03
    152     0 12:40:00  2.527314E-08  4.488768E+03  4.488768E+03  3.742552E+14
           (01,041,24)  1.851251E-05  1.020350E-05  5.547326E-04  1.102476E-03
    153     0 12:45:00  2.531881E-08  4.488767E+03  4.488767E+03  3.742552E+14
           (01,041,24)  1.870689E-05  1.054839E-05  5.681444E-04  1.116385E-03
    154     0 12:50:00  2.530626E-08  4.488766E+03  4.488766E+03  3.742552E+14
           (01,041,24)  1.889425E-05  1.092893E-05  5.813516E-04  1.130324E-03
    155     0 12:55:00  2.527112E-08  4.488766E+03  4.488766E+03  3.742552E+14
           (01,041,24)  1.907471E-05  1.141492E-05  5.960888E-04  1.199766E-03
    156     0 13:00:00  2.523822E-08  4.488765E+03  4.488765E+03  3.742552E+14
           (01,041,24)  1.924965E-05  1.200256E-05  6.116156E-04  1.281918E-03
    157     0 13:05:00  2.520100E-08  4.488764E+03  4.488764E+03  3.742552E+14
           (01,041,24)  1.942107E-05  1.265227E-05  6.261952E-04  1.348838E-03
    158     0 13:10:00  2.511354E-08  4.488764E+03  4.488764E+03  3.742552E+14
           (01,041,24)  1.958948E-05  1.332865E-05  6.391097E-04  1.397741E-03
    159     0 13:15:00  2.490632E-08  4.488763E+03  4.488763E+03  3.742552E+14
           (01,041,24)  1.975482E-05  1.401022E-05  6.501934E-04  1.428580E-03
    160     0 13:20:00  2.451823E-08  4.488762E+03  4.488762E+03  3.742552E+14
           (01,041,24)  1.991670E-05  1.468405E-05  6.595390E-04  1.446219E-03
    161     0 13:25:00  2.391865E-08  4.488762E+03  4.488762E+03  3.742552E+14
           (01,041,24)  2.007432E-05  1.533421E-05  6.668270E-04  1.454449E-03
    162     0 13:30:00  2.310091E-08  4.488761E+03  4.488761E+03  3.742552E+14
           (01,041,24)  2.022814E-05  1.594206E-05  6.712635E-04  1.452574E-03
    163     0 13:35:00  2.206095E-08  4.488761E+03  4.488761E+03  3.742552E+14
           (01,041,24)  2.038036E-05  1.649217E-05  6.729158E-04  1.436286E-03
    164     0 13:40:00  2.078666E-08  4.488760E+03  4.488760E+03  3.742552E+14
           (01,041,24)  2.053452E-05  1.697341E-05  6.729311E-04  1.404132E-03
    165     0 13:45:00  1.926491E-08  4.488760E+03  4.488760E+03  3.742552E+14
           (01,041,24)  2.069461E-05  1.737744E-05  6.730434E-04  1.356547E-03
    166     0 13:50:00  1.749941E-08  4.488759E+03  4.488759E+03  3.742552E+14
           (01,041,24)  2.086371E-05  1.769881E-05  6.750187E-04  1.337735E-03
    167     0 13:55:00  1.553513E-08  4.488759E+03  4.488759E+03  3.742552E+14
           (01,041,24)  2.104287E-05  1.793733E-05  6.800941E-04  1.350748E-03
    168     0 14:00:00  1.347871E-08  4.488758E+03  4.488758E+03  3.742552E+14
           (51,041,24)  1.528901E-05  1.493816E-05  7.037288E-04  1.362598E-03
    169     0 14:05:00  1.148886E-08  4.488758E+03  4.488758E+03  3.742552E+14
           (51,041,24)  1.541457E-05  1.526418E-05  7.167556E-04  1.373653E-03
    170     0 14:10:00  9.723546E-09  4.488758E+03  4.488758E+03  3.742552E+14
           (51,041,24)  1.554472E-05  1.547797E-05  7.246415E-04  1.384430E-03
    171     0 14:15:00  8.278525E-09  4.488758E+03  4.488758E+03  3.742552E+14
           (01,041,24)  2.182419E-05  1.838012E-05  7.228206E-04  1.457517E-03
    172     0 14:20:00  7.177916E-09  4.488757E+03  4.488757E+03  3.742552E+14
           (01,041,24)  2.202391E-05  1.850972E-05  7.336016E-04  1.515559E-03
    173     0 14:25:00  6.425294E-09  4.488757E+03  4.488757E+03  3.742552E+14
           (01,041,24)  2.222353E-05  1.870370E-05  7.441437E-04  1.549706E-03
    174     0 14:30:00  6.047881E-09  4.488757E+03  4.488757E+03  3.742552E+14
           (01,041,24)  2.242273E-05  1.897475E-05  7.555195E-04  1.559399E-03
    175     0 14:35:00  6.078316E-09  4.488757E+03  4.488757E+03  3.742552E+14
           (01,041,24)  2.262062E-05  1.932517E-05  7.684687E-04  1.554412E-03
    176     0 14:40:00  6.502931E-09  4.488757E+03  4.488757E+03  3.742552E+14
           (01,041,24)  2.281635E-05  1.975021E-05  7.829154E-04  1.543918E-03
    177     0 14:45:00  7.237436E-09  4.488757E+03  4.488757E+03  3.742552E+14
           (01,041,24)  2.300996E-05  2.024149E-05  7.981930E-04  1.527844E-03
    178     0 14:50:00  8.144027E-09  4.488757E+03  4.488757E+03  3.742552E+14
           (01,041,24)  2.320258E-05  2.078931E-05  8.136750E-04  1.513639E-03
    179     0 14:55:00  9.067554E-09  4.488757E+03  4.488757E+03  3.742552E+14
           (01,041,24)  2.339574E-05  2.138407E-05  8.292382E-04  1.522849E-03
    180     0 15:00:00  9.875059E-09  4.488757E+03  4.488757E+03  3.742552E+14
           (01,041,24)  2.359019E-05  2.201764E-05  8.452019E-04  1.543628E-03
    181     0 15:05:00  1.048976E-08  4.488757E+03  4.488757E+03  3.742552E+14
           (01,041,24)  2.378529E-05  2.268461E-05  8.618648E-04  1.565203E-03
    182     0 15:10:00  1.090618E-08  4.488757E+03  4.488757E+03  3.742552E+14
           (01,041,24)  2.397933E-05  2.338285E-05  8.790865E-04  1.587537E-03
    183     0 15:15:00  1.117906E-08  4.488757E+03  4.488757E+03  3.742552E+14
           (01,041,24)  2.417046E-05  2.411365E-05  8.962677E-04  1.610661E-03
    184     0 15:20:00  1.139563E-08  4.488758E+03  4.488758E+03  3.742552E+14
           (01,041,24)  2.435769E-05  2.488271E-05  9.127374E-04  1.634695E-03
    185     0 15:25:00  1.165083E-08  4.488758E+03  4.488758E+03  3.742552E+14
           (01,041,24)  2.454137E-05  2.570190E-05  9.282486E-04  1.659895E-03
    186     0 15:30:00  1.203523E-08  4.488758E+03  4.488758E+03  3.742552E+14
           (01,041,24)  2.472297E-05  2.659094E-05  9.432456E-04  1.686715E-03
    187     0 15:35:00  1.262885E-08  4.488758E+03  4.488758E+03  3.742552E+14
           (01,041,24)  2.490422E-05  2.757359E-05  9.587043E-04  1.715722E-03
    188     0 15:40:00  1.349041E-08  4.488759E+03  4.488759E+03  3.742552E+14
           (01,041,24)  2.508628E-05  2.866792E-05  9.757358E-04  1.747423E-03
    189     0 15:45:00  1.464051E-08  4.488759E+03  4.488759E+03  3.742552E+14
           (01,041,24)  2.526941E-05  2.987030E-05  9.949694E-04  1.781903E-03
    190     0 15:50:00  1.604293E-08  4.488760E+03  4.488760E+03  3.742552E+14
           (01,041,24)  2.545324E-05  3.113840E-05  1.016203E-03  1.818386E-03
    191     0 15:55:00  1.759052E-08  4.488760E+03  4.488760E+03  3.742552E+14
           (01,041,24)  2.563724E-05  3.238214E-05  1.038305E-03  1.854918E-03
    192     0 16:00:00  1.910937E-08  4.488761E+03  4.488761E+03  3.742552E+14
           (01,041,24)  2.582110E-05  3.347286E-05  1.059407E-03  1.888459E-03
    193     0 16:05:00  2.039635E-08  4.488762E+03  4.488762E+03  3.742552E+14
           (01,041,24)  2.600524E-05  3.427564E-05  1.077449E-03  1.915637E-03
    194     0 16:10:00  2.128470E-08  4.488762E+03  4.488762E+03  3.742552E+14
           (01,041,24)  2.619033E-05  3.469682E-05  1.090869E-03  1.934003E-03
    195     0 16:15:00  2.169840E-08  4.488763E+03  4.488763E+03  3.742552E+14
           (01,041,24)  2.637708E-05  3.472710E-05  1.098950E-03  1.943244E-03
    196     0 16:20:00  2.165280E-08  4.488763E+03  4.488763E+03  3.742552E+14
           (01,041,24)  2.656611E-05  3.445599E-05  1.101934E-03  1.945568E-03
    197     0 16:25:00  2.120786E-08  4.488764E+03  4.488764E+03  3.742552E+14
           (01,041,24)  2.675776E-05  3.404299E-05  1.100914E-03  1.944873E-03
    198     0 16:30:00  2.042990E-08  4.488765E+03  4.488765E+03  3.742552E+14
           (01,041,24)  2.695207E-05  3.365430E-05  1.097554E-03  1.945064E-03
    199     0 16:35:00  1.939674E-08  4.488765E+03  4.488765E+03  3.742552E+14
           (01,041,24)  2.714886E-05  3.339603E-05  1.093810E-03  1.948456E-03
    200     0 16:40:00  1.821934E-08  4.488766E+03  4.488766E+03  3.742552E+14
           (01,041,24)  2.734764E-05  3.328021E-05  1.091563E-03  1.955123E-03
    201     0 16:45:00  1.703855E-08  4.488766E+03  4.488766E+03  3.742552E+14
           (01,041,24)  2.754747E-05  3.324046E-05  1.092099E-03  1.963407E-03
    202     0 16:50:00  1.599426E-08  4.488767E+03  4.488767E+03  3.742552E+14
           (01,041,24)  2.774695E-05  3.318246E-05  1.095579E-03  1.971140E-03
    203     0 16:55:00  1.518992E-08  4.488767E+03  4.488767E+03  3.742552E+14
           (01,041,24)  2.794440E-05  3.303398E-05  1.100876E-03  1.976771E-03
    204     0 17:00:00  1.466724E-08  4.488767E+03  4.488767E+03  3.742552E+14
           (01,041,24)  2.813844E-05  3.276588E-05  1.106005E-03  1.979792E-03
    205     0 17:05:00  1.439772E-08  4.488768E+03  4.488768E+03  3.742552E+14
           (01,041,24)  2.832858E-05  3.238214E-05  1.108995E-03  1.980447E-03
    206     0 17:10:00  1.429566E-08  4.488768E+03  4.488768E+03  3.742552E+14
           (01,041,24)  2.851568E-05  3.189904E-05  1.108693E-03  1.979225E-03
    207     0 17:15:00  1.425032E-08  4.488768E+03  4.488768E+03  3.742552E+14
           (01,041,24)  2.870175E-05  3.133400E-05  1.105121E-03  1.976603E-03
    208     0 17:20:00  1.416219E-08  4.488769E+03  4.488769E+03  3.742552E+14
           (01,041,24)  2.888921E-05  3.070746E-05  1.099260E-03  1.973092E-03
    209     0 17:25:00  1.396463E-08  4.488769E+03  4.488769E+03  3.742552E+14
           (01,041,24)  2.907985E-05  3.004789E-05  1.092512E-03  1.969329E-03
    210     0 17:30:00  1.362370E-08  4.488769E+03  4.488769E+03  3.742552E+14
           (01,041,24)  2.927411E-05  2.939131E-05  1.086194E-03  1.966036E-03
    211     0 17:35:00  1.312736E-08  4.488769E+03  4.488769E+03  3.742552E+14
           (01,041,24)  2.947088E-05  2.877606E-05  1.081218E-03  1.963900E-03
    212     0 17:40:00  1.248020E-08  4.488769E+03  4.488769E+03  3.742552E+14
           (01,041,24)  2.966791E-05  2.823834E-05  1.077951E-03  1.963488E-03
    213     0 17:45:00  1.170929E-08  4.488769E+03  4.488769E+03  3.742552E+14
           (01,041,24)  2.986269E-05  2.781082E-05  1.076269E-03  1.965270E-03
    214     0 17:50:00  1.087569E-08  4.488769E+03  4.488769E+03  3.742552E+14
           (01,041,24)  3.005336E-05  2.752046E-05  1.075750E-03  1.969600E-03
    215     0 17:55:00  1.008178E-08  4.488769E+03  4.488769E+03  3.742552E+14
           (01,041,24)  3.023944E-05  2.738527E-05  1.076037E-03  1.976711E-03
    216     0 18:00:00  9.463412E-09  4.488769E+03  4.488769E+03  3.742552E+14
           (01,041,24)  3.042201E-05  2.740938E-05  1.076979E-03  1.986644E-03
    217     0 18:05:00  9.159171E-09  4.488769E+03  4.488769E+03  3.742552E+14
           (01,041,24)  3.060322E-05  2.758042E-05  1.078664E-03  1.999215E-03
    218     0 18:10:00  9.266217E-09  4.488769E+03  4.488769E+03  3.742552E+14
           (01,041,24)  3.078548E-05  2.787076E-05  1.081275E-03  2.014002E-03
    219     0 18:15:00  9.811633E-09  4.488769E+03  4.488769E+03  3.742552E+14
           (01,041,24)  3.097063E-05  2.824225E-05  1.084962E-03  2.030379E-03
    220     0 18:20:00  1.076261E-08  4.488769E+03  4.488769E+03  3.742552E+14
           (01,041,24)  3.115945E-05  2.865302E-05  1.089808E-03  2.047603E-03
    221     0 18:25:00  1.206306E-08  4.488769E+03  4.488769E+03  3.742552E+14
           (01,041,24)  3.135177E-05  2.906392E-05  1.095852E-03  2.064923E-03
    222     0 18:30:00  1.365711E-08  4.488769E+03  4.488769E+03  3.742552E+14
           (01,041,24)  3.154691E-05  2.944255E-05  1.103117E-03  2.081682E-03
    223     0 18:35:00  1.547896E-08  4.488768E+03  4.488768E+03  3.742552E+14
           (01,041,24)  3.174421E-05  2.976380E-05  1.111590E-03  2.097361E-03
    224     0 18:40:00  1.743116E-08  4.488768E+03  4.488768E+03  3.742552E+14
           (01,041,24)  3.194326E-05  3.000771E-05  1.121142E-03  2.111569E-03
    225     0 18:45:00  1.938496E-08  4.488768E+03  4.488768E+03  3.742552E+14
           (01,041,24)  3.214374E-05  3.015699E-05  1.131428E-03  2.124007E-03
    226     0 18:50:00  2.120787E-08  4.488768E+03  4.488768E+03  3.742552E+14
           (01,041,24)  3.234521E-05  3.019607E-05  1.141811E-03  2.134437E-03
    227     0 18:55:00  2.279871E-08  4.488767E+03  4.488767E+03  3.742552E+14
           (01,041,24)  3.254701E-05  3.011254E-05  1.151388E-03  2.142704E-03
    228     0 19:00:00  2.411256E-08  4.488767E+03  4.488767E+03  3.742552E+14
           (01,041,24)  3.274849E-05  2.989938E-05  1.159161E-03  2.148768E-03
    229     0 19:05:00  2.516918E-08  4.488766E+03  4.488766E+03  3.742552E+14
           (01,041,24)  3.294923E-05  2.955596E-05  1.164275E-03  2.152718E-03
    230     0 19:10:00  2.604280E-08  4.488766E+03  4.488766E+03  3.742552E+14
           (01,041,24)  3.314914E-05  2.908613E-05  1.166215E-03  2.154727E-03
    231     0 19:15:00  2.683653E-08  4.488765E+03  4.488765E+03  3.742552E+14
           (01,041,24)  3.334816E-05  2.849423E-05  1.164851E-03  2.154982E-03
    232     0 19:20:00  2.765267E-08  4.488765E+03  4.488765E+03  3.742552E+14
           (01,041,24)  3.354589E-05  2.778161E-05  1.160293E-03  2.153611E-03
    233     0 19:25:00  2.857177E-08  4.488764E+03  4.488764E+03  3.742552E+14
           (01,041,24)  3.374138E-05  2.694629E-05  1.152672E-03  2.150697E-03
    234     0 19:30:00  2.964426E-08  4.488764E+03  4.488764E+03  3.742552E+14
           (01,041,24)  3.393332E-05  2.598708E-05  1.141983E-03  2.146355E-03
    235     0 19:35:00  3.088868E-08  4.488763E+03  4.488763E+03  3.742552E+14
           (01,041,24)  3.412060E-05  2.491162E-05  1.128131E-03  2.140860E-03
    236     0 19:40:00  3.228861E-08  4.488762E+03  4.488762E+03  3.742552E+14
           (01,041,24)  3.430286E-05  2.374651E-05  1.111174E-03  2.134769E-03
    237     0 19:45:00  3.378639E-08  4.488762E+03  4.488762E+03  3.742552E+14
           (01,041,24)  3.448081E-05  2.254624E-05  1.091664E-03  2.128957E-03
    238     0 19:50:00  3.527785E-08  4.488761E+03  4.488761E+03  3.742552E+14
           (01,041,24)  3.465602E-05  2.139715E-05  1.070890E-03  2.137326E-03
    239     0 19:55:00  3.661593E-08  4.488760E+03  4.488760E+03  3.742552E+14
           (01,041,24)  3.483044E-05  2.041219E-05  1.050925E-03  2.174064E-03
    240     0 20:00:00  3.763225E-08  4.488759E+03  4.488759E+03  3.742552E+14
           (01,041,24)  3.500592E-05  1.971374E-05  1.034405E-03  2.202492E-03
    241     0 20:05:00  3.817832E-08  4.488758E+03  4.488758E+03  3.742552E+14
           (01,041,24)  3.518390E-05  1.940575E-05  1.024073E-03  2.221072E-03
    242     0 20:10:00  3.817154E-08  4.488757E+03  4.488757E+03  3.742552E+14
           (01,041,24)  3.536533E-05  1.954234E-05  1.022166E-03  2.229071E-03
    243     0 20:15:00  3.761877E-08  4.488756E+03  4.488756E+03  3.742552E+14
           (01,041,24)  3.555066E-05  2.010524E-05  1.029762E-03  2.226870E-03
    244     0 20:20:00  3.660144E-08  4.488756E+03  4.488756E+03  3.742552E+14
           (01,041,24)  3.573980E-05  2.100229E-05  1.046304E-03  2.216108E-03
    245     0 20:25:00  3.523763E-08  4.488755E+03  4.488755E+03  3.742552E+14
           (01,041,24)  3.593217E-05  2.209254E-05  1.069600E-03  2.199653E-03
    246     0 20:30:00  3.365384E-08  4.488754E+03  4.488754E+03  3.742552E+14
           (01,041,24)  3.612679E-05  2.323063E-05  1.096467E-03  2.223612E-03
    247     0 20:35:00  3.198031E-08  4.488753E+03  4.488753E+03  3.742552E+14
           (01,041,24)  3.632257E-05  2.431164E-05  1.123833E-03  2.247592E-03
    248     0 20:40:00  3.035232E-08  4.488753E+03  4.488753E+03  3.742552E+14
           (01,041,24)  3.651851E-05  2.529554E-05  1.149776E-03  2.270849E-03
    249     0 20:45:00  2.889619E-08  4.488752E+03  4.488752E+03  3.742552E+14
           (01,041,24)  3.671392E-05  2.620067E-05  1.173913E-03  2.293402E-03
    250     0 20:50:00  2.770205E-08  4.488752E+03  4.488752E+03  3.742552E+14
           (01,041,24)  3.690850E-05  2.707298E-05  1.196952E-03  2.315768E-03
    251     0 20:55:00  2.680087E-08  4.488751E+03  4.488751E+03  3.742552E+14
           (01,041,24)  3.710230E-05  2.795051E-05  1.219761E-03  2.338494E-03
    252     0 21:00:00  2.615740E-08  4.488751E+03  4.488751E+03  3.742552E+14
           (01,041,24)  3.729551E-05  2.884247E-05  1.242603E-03  2.361788E-03
    253     0 21:05:00  2.568104E-08  4.488750E+03  4.488750E+03  3.742552E+14
           (01,041,24)  3.748820E-05  2.973026E-05  1.264982E-03  2.385428E-03
    254     0 21:10:00  2.525174E-08  4.488750E+03  4.488750E+03  3.742552E+14
           (01,041,24)  3.768010E-05  3.058334E-05  1.286040E-03  2.408925E-03
    255     0 21:15:00  2.475398E-08  4.488749E+03  4.488749E+03  3.742552E+14
           (01,041,24)  3.787057E-05  3.137572E-05  1.305051E-03  2.431780E-03
    256     0 21:20:00  2.410598E-08  4.488749E+03  4.488749E+03  3.742552E+14
           (01,041,24)  3.805880E-05  3.209306E-05  1.321657E-03  2.453640E-03
    257     0 21:25:00  2.327285E-08  4.488749E+03  4.488749E+03  3.742552E+14
           (01,041,24)  3.824423E-05  3.272966E-05  1.335778E-03  2.474306E-03
    258     0 21:30:00  2.226230E-08  4.488748E+03  4.488748E+03  3.742552E+14
           (01,041,24)  3.842687E-05  3.328196E-05  1.347448E-03  2.493645E-03
    259     0 21:35:00  2.111269E-08  4.488748E+03  4.488748E+03  3.742552E+14
           (01,041,24)  3.860745E-05  3.374500E-05  1.356767E-03  2.511528E-03
    260     0 21:40:00  1.988496E-08  4.488748E+03  4.488748E+03  3.742552E+14
           (01,041,24)  3.878712E-05  3.411359E-05  1.363982E-03  2.527831E-03
    261     0 21:45:00  1.866161E-08  4.488748E+03  4.488748E+03  3.742552E+14
           (01,041,24)  3.896702E-05  3.438616E-05  1.369507E-03  2.542506E-03
    262     0 21:50:00  1.754767E-08  4.488748E+03  4.488748E+03  3.742552E+14
           (01,041,24)  3.914784E-05  3.456822E-05  1.373827E-03  2.555632E-03
    263     0 21:55:00  1.666514E-08  4.488748E+03  4.488748E+03  3.742552E+14
           (01,041,24)  3.932958E-05  3.467389E-05  1.377337E-03  2.567444E-03
    264     0 22:00:00  1.613482E-08  4.488748E+03  4.488748E+03  3.742552E+14
           (01,041,24)  3.951155E-05  3.472582E-05  1.380260E-03  2.578323E-03
    265     0 22:05:00  1.604654E-08  4.488748E+03  4.488748E+03  3.742552E+14
           (01,041,24)  3.969275E-05  3.475343E-05  1.382696E-03  2.588757E-03
    266     0 22:10:00  1.643048E-08  4.488748E+03  4.488748E+03  3.742552E+14
           (01,041,24)  3.987221E-05  3.478977E-05  1.384781E-03  2.599278E-03
    267     0 22:15:00  1.724720E-08  4.488748E+03  4.488748E+03  3.742552E+14
           (01,041,24)  4.004951E-05  3.486713E-05  1.386855E-03  2.621696E-03
    268     0 22:20:00  1.840385E-08  4.488748E+03  4.488748E+03  3.742552E+14
           (01,041,24)  4.022494E-05  3.501232E-05  1.389542E-03  2.624819E-03
    269     0 22:25:00  1.978342E-08  4.488748E+03  4.488748E+03  3.742552E+14
           (01,041,24)  4.039950E-05  3.524274E-05  1.393699E-03  2.635951E-03
    270     0 22:30:00  2.126532E-08  4.488748E+03  4.488748E+03  3.742552E+14
           (01,041,24)  4.057460E-05  3.556455E-05  1.400203E-03  2.650803E-03
    271     0 22:35:00  2.273006E-08  4.488748E+03  4.488748E+03  3.742552E+14
           (01,041,24)  4.075157E-05  3.597357E-05  1.409692E-03  2.667072E-03
    272     0 22:40:00  2.406107E-08  4.488749E+03  4.488749E+03  3.742552E+14
           (01,041,24)  4.093136E-05  3.645833E-05  1.422364E-03  2.684648E-03
    273     0 22:45:00  2.515780E-08  4.488749E+03  4.488749E+03  3.742552E+14
           (01,041,24)  4.111438E-05  3.700390E-05  1.437935E-03  2.703363E-03
    274     0 22:50:00  2.595745E-08  4.488749E+03  4.488749E+03  3.742552E+14
           (01,041,24)  4.130049E-05  3.759519E-05  1.455772E-03  2.723032E-03
    275     0 22:55:00  2.645108E-08  4.488749E+03  4.488749E+03  3.742552E+14
           (01,041,24)  4.148922E-05  3.821862E-05  1.475101E-03  2.743465E-03
    276     0 23:00:00  2.668463E-08  4.488750E+03  4.488750E+03  3.742552E+14
           (01,041,24)  4.167985E-05  3.886268E-05  1.495200E-03  2.764479E-03
    277     0 23:05:00  2.674540E-08  4.488750E+03  4.488750E+03  3.742552E+14
           (01,041,24)  4.187155E-05  3.951799E-05  1.515484E-03  2.785902E-03
    278     0 23:10:00  2.673895E-08  4.488750E+03  4.488750E+03  3.742552E+14
           (01,041,24)  4.206343E-05  4.017805E-05  1.535515E-03  2.807601E-03
    279     0 23:15:00  2.676289E-08  4.488751E+03  4.488751E+03  3.742552E+14
           (01,041,24)  4.225473E-05  4.084031E-05  1.554983E-03  2.829506E-03
    280     0 23:20:00  2.688598E-08  4.488751E+03  4.488751E+03  3.742552E+14
           (01,041,24)  4.244486E-05  4.150733E-05  1.573719E-03  2.851637E-03
    281     0 23:25:00  2.713941E-08  4.488752E+03  4.488752E+03  3.742552E+14
           (01,041,24)  4.263350E-05  4.218523E-05  1.591721E-03  2.874089E-03
    282     0 23:30:00  2.752032E-08  4.488752E+03  4.488752E+03  3.742552E+14
           (01,041,24)  4.282045E-05  4.288046E-05  1.609141E-03  2.896968E-03
    283     0 23:35:00  2.800158E-08  4.488753E+03  4.488753E+03  3.742552E+14
           (01,041,24)  4.300548E-05  4.359342E-05  1.626197E-03  2.920257E-03
    284     0 23:40:00  2.853992E-08  4.488753E+03  4.488753E+03  3.742552E+14
           (01,041,24)  4.318809E-05  4.431225E-05  1.642989E-03  2.943732E-03
    285     0 23:45:00  2.907964E-08  4.488754E+03  4.488754E+03  3.742552E+14
           (01,041,24)  4.336743E-05  4.500670E-05  1.659227E-03  2.966779E-03
    286     0 23:50:00  2.955439E-08  4.488754E+03  4.488754E+03  3.742552E+14
           (01,041,24)  4.354247E-05  4.562799E-05  1.674228E-03  2.988421E-03
    287     0 23:55:00  2.989302E-08  4.488755E+03  4.488755E+03  3.742552E+14
           (01,041,24)  4.371234E-05  4.611458E-05  1.686829E-03  3.007411E-03
    288     1 00:00:00  3.003384E-08  4.488755E+03  4.488755E+03  3.742552E+14
           (01,041,24)  4.387671E-05  4.640552E-05  1.695709E-03  3.022506E-03
      WRT_HIS   - wrote history  fields (Index=1,1) into time record = 0000002
    289     1 00:05:00  2.994463E-08  4.488756E+03  4.488756E+03  3.742552E+14
           (01,041,24)  4.403608E-05  4.645886E-05  1.699744E-03  3.032871E-03
    290     1 00:10:00  2.963687E-08  4.488756E+03  4.488756E+03  3.742552E+14
           (01,041,24)  4.419177E-05  4.626901E-05  1.698377E-03  3.038448E-03
    291     1 00:15:00  2.916226E-08  4.488757E+03  4.488757E+03  3.742552E+14
           (01,041,24)  4.434568E-05  4.587584E-05  1.691877E-03  3.040124E-03
    292     1 00:20:00  2.859079E-08  4.488757E+03  4.488757E+03  3.742552E+14
           (01,041,24)  4.449986E-05  4.535937E-05  1.681364E-03  3.039576E-03
    293     1 00:25:00  2.798568E-08  4.488758E+03  4.488758E+03  3.742552E+14
           (01,041,24)  4.465612E-05  4.481924E-05  1.668614E-03  3.038793E-03
    294     1 00:30:00  2.739213E-08  4.488758E+03  4.488758E+03  3.742552E+14
           (01,041,24)  4.481571E-05  4.434485E-05  1.655688E-03  3.039464E-03
    295     1 00:35:00  2.684196E-08  4.488758E+03  4.488758E+03  3.742552E+14
           (01,041,24)  4.497932E-05  4.398774E-05  1.644502E-03  3.042472E-03
    296     1 00:40:00  2.636073E-08  4.488759E+03  4.488759E+03  3.742552E+14
           (01,041,24)  4.514715E-05  4.374799E-05  1.636456E-03  3.047709E-03
    297     1 00:45:00  2.596568E-08  4.488759E+03  4.488759E+03  3.742552E+14
           (01,041,24)  4.531916E-05  4.358054E-05  1.632175E-03  3.054263E-03
    298     1 00:50:00  2.565672E-08  4.488759E+03  4.488759E+03  3.742552E+14
           (01,041,24)  4.549528E-05  4.341770E-05  1.631440E-03  3.060880E-03
    299     1 00:55:00  2.541128E-08  4.488759E+03  4.488759E+03  3.742552E+14
           (01,041,24)  4.567551E-05  4.319556E-05  1.633341E-03  3.066446E-03
    300     1 01:00:00  2.518991E-08  4.488759E+03  4.488759E+03  3.742552E+14
           (01,041,24)  4.585994E-05  4.287448E-05  1.636637E-03  3.070339E-03
    301     1 01:05:00  2.495127E-08  4.488759E+03  4.488759E+03  3.742552E+14
           (01,041,24)  4.604868E-05  4.244459E-05  1.640093E-03  3.072511E-03
    302     1 01:10:00  2.467119E-08  4.488760E+03  4.488760E+03  3.742552E+14
           (01,041,24)  4.624182E-05  4.191996E-05  1.642803E-03  3.073326E-03
    303     1 01:15:00  2.435812E-08  4.488760E+03  4.488760E+03  3.742552E+14
           (01,041,24)  4.643927E-05  4.132782E-05  1.644387E-03  3.073332E-03
    304     1 01:20:00  2.405767E-08  4.488760E+03  4.488760E+03  3.742552E+14
           (01,041,24)  4.664035E-05  4.069934E-05  1.644967E-03  3.073081E-03
    305     1 01:25:00  2.384282E-08  4.488760E+03  4.488760E+03  3.742552E+14
           (01,041,24)  4.684423E-05  4.006576E-05  1.644925E-03  3.073067E-03
    306     1 01:30:00  2.379436E-08  4.488760E+03  4.488760E+03  3.742552E+14
           (01,041,24)  4.704939E-05  3.945687E-05  1.644813E-03  3.073706E-03
    307     1 01:35:00  2.398115E-08  4.488759E+03  4.488759E+03  3.742552E+14
           (01,041,24)  4.725383E-05  3.890029E-05  1.645032E-03  3.075345E-03
    308     1 01:40:00  2.444911E-08  4.488759E+03  4.488759E+03  3.742552E+14
           (01,041,24)  4.745571E-05  3.842002E-05  1.645783E-03  3.078257E-03
    309     1 01:45:00  2.522012E-08  4.488759E+03  4.488759E+03  3.742552E+14
           (01,041,24)  4.765360E-05  3.803411E-05  1.647159E-03  3.082624E-03
    310     1 01:50:00  2.629645E-08  4.488759E+03  4.488759E+03  3.742552E+14
           (01,041,24)  4.784640E-05  3.775310E-05  1.649198E-03  3.088519E-03
    311     1 01:55:00  2.766433E-08  4.488758E+03  4.488758E+03  3.742552E+14
           (01,041,24)  4.803436E-05  3.757892E-05  1.651865E-03  3.095926E-03
    312     1 02:00:00  2.929380E-08  4.488758E+03  4.488758E+03  3.742552E+14
           (01,041,24)  4.821789E-05  3.750485E-05  1.655322E-03  3.104716E-03
    313     1 02:05:00  3.113675E-08  4.488758E+03  4.488758E+03  3.742552E+14
           (01,041,24)  4.839786E-05  3.751577E-05  1.659605E-03  3.114661E-03
    314     1 02:10:00  3.312949E-08  4.488757E+03  4.488757E+03  3.742552E+14
           (01,041,24)  4.857478E-05  3.758994E-05  1.664726E-03  3.125440E-03
    315     1 02:15:00  3.520404E-08  4.488757E+03  4.488757E+03  3.742552E+14
           (01,041,24)  4.874868E-05  3.770216E-05  1.670478E-03  3.136683E-03
    316     1 02:20:00  3.730461E-08  4.488756E+03  4.488756E+03  3.742552E+14
           (01,041,24)  4.891898E-05  3.782806E-05  1.676449E-03  3.148016E-03
    317     1 02:25:00  3.939776E-08  4.488756E+03  4.488756E+03  3.742552E+14
           (01,041,24)  4.908490E-05  3.794778E-05  1.682059E-03  3.159136E-03
    318     1 02:30:00  4.146727E-08  4.488755E+03  4.488755E+03  3.742552E+14
           (01,041,24)  4.924585E-05  3.804793E-05  1.686718E-03  3.169839E-03
    319     1 02:35:00  4.349739E-08  4.488755E+03  4.488755E+03  3.742552E+14
           (01,041,24)  4.940191E-05  3.812089E-05  1.689937E-03  3.180031E-03
    320     1 02:40:00  4.545794E-08  4.488754E+03  4.488754E+03  3.742552E+14
           (01,041,24)  4.955398E-05  3.816243E-05  1.691423E-03  3.189692E-03
    321     1 02:45:00  4.730177E-08  4.488754E+03  4.488754E+03  3.742552E+14
           (01,041,24)  4.970369E-05  3.816900E-05  1.691068E-03  3.198837E-03
    322     1 02:50:00  4.897272E-08  4.488753E+03  4.488753E+03  3.742552E+14
           (01,041,24)  4.985306E-05  3.813613E-05  1.688924E-03  3.207477E-03
    323     1 02:55:00  5.041534E-08  4.488752E+03  4.488752E+03  3.742552E+14
           (01,041,24)  5.000417E-05  3.805865E-05  1.685147E-03  3.215606E-03
    324     1 03:00:00  5.158055E-08  4.488752E+03  4.488752E+03  3.742552E+14
           (01,041,24)  5.015881E-05  3.793210E-05  1.679992E-03  3.223212E-03
    325     1 03:05:00  5.242770E-08  4.488751E+03  4.488751E+03  3.742552E+14
           (01,041,24)  5.031832E-05  3.775428E-05  1.673808E-03  3.230292E-03
    326     1 03:10:00  5.292643E-08  4.488750E+03  4.488750E+03  3.742552E+14
           (01,041,24)  5.048356E-05  3.752587E-05  1.667043E-03  3.236861E-03
    327     1 03:15:00  5.306036E-08  4.488750E+03  4.488750E+03  3.742552E+14
           (01,041,24)  5.065492E-05  3.725005E-05  1.660216E-03  3.242953E-03
    328     1 03:20:00  5.283306E-08  4.488749E+03  4.488749E+03  3.742552E+14
           (01,041,24)  5.083235E-05  3.693171E-05  1.653848E-03  3.248617E-03
    329     1 03:25:00  5.227468E-08  4.488748E+03  4.488748E+03  3.742552E+14
           (01,041,24)  5.101546E-05  3.657753E-05  1.648382E-03  3.253923E-03
    330     1 03:30:00  5.144504E-08  4.488748E+03  4.488748E+03  3.742552E+14
           (01,041,24)  5.120361E-05  3.619773E-05  1.644141E-03  3.259288E-03
    331     1 03:35:00  5.042913E-08  4.488747E+03  4.488747E+03  3.742552E+14
           (01,041,24)  5.139611E-05  3.580907E-05  1.641348E-03  3.265244E-03
    332     1 03:40:00  4.932365E-08  4.488746E+03  4.488746E+03  3.742552E+14
           (01,041,24)  5.159242E-05  3.543823E-05  1.640230E-03  3.271534E-03
    333     1 03:45:00  4.821876E-08  4.488745E+03  4.488745E+03  3.742552E+14
           (01,041,24)  5.179218E-05  3.512327E-05  1.641146E-03  3.278614E-03
    334     1 03:50:00  4.718225E-08  4.488745E+03  4.488745E+03  3.742552E+14
           (01,041,24)  5.199522E-05  3.491149E-05  1.644669E-03  3.287044E-03
    335     1 03:55:00  4.625287E-08  4.488744E+03  4.488744E+03  3.742552E+14
           (01,041,24)  5.220130E-05  3.485252E-05  1.651582E-03  3.297404E-03
    336     1 04:00:00  4.544423E-08  4.488743E+03  4.488743E+03  3.742552E+14
           (01,041,24)  5.240999E-05  3.498737E-05  1.662724E-03  3.310176E-03
    337     1 04:05:00  4.475462E-08  4.488743E+03  4.488743E+03  3.742552E+14
           (01,041,24)  5.262036E-05  3.533629E-05  1.678719E-03  3.325605E-03
[...]
      WRT_HIS   - wrote history  fields (Index=1,1) into time record = 0000031
   8641    30 00:05:00  2.939226E-06  4.488704E+03  4.488704E+03  3.742552E+14
           (01,041,24)  3.697518E-04  7.324568E-04  2.187961E-02  4.191577E-02
   8642    30 00:10:00  2.939653E-06  4.488704E+03  4.488704E+03  3.742552E+14
           (01,041,24)  3.697687E-04  7.324484E-04  2.187960E-02  4.191639E-02
   8643    30 00:15:00  2.940074E-06  4.488704E+03  4.488704E+03  3.742552E+14
           (01,041,24)  3.697857E-04  7.324429E-04  2.187964E-02  4.191709E-02
   8644    30 00:20:00  2.940488E-06  4.488703E+03  4.488703E+03  3.742552E+14
           (01,041,24)  3.698027E-04  7.324404E-04  2.187973E-02  4.191786E-02
   8645    30 00:25:00  2.940894E-06  4.488703E+03  4.488703E+03  3.742552E+14
           (01,041,24)  3.698197E-04  7.324412E-04  2.187987E-02  4.191872E-02
   8646    30 00:30:00  2.941292E-06  4.488703E+03  4.488703E+03  3.742552E+14
           (01,041,24)  3.698366E-04  7.324456E-04  2.188008E-02  4.191966E-02
   8647    30 00:35:00  2.941682E-06  4.488703E+03  4.488703E+03  3.742552E+14
           (01,041,24)  3.698535E-04  7.324538E-04  2.188035E-02  4.192071E-02
   8648    30 00:40:00  2.942061E-06  4.488703E+03  4.488703E+03  3.742552E+14
           (01,041,24)  3.698702E-04  7.324659E-04  2.188069E-02  4.192187E-02
   8649    30 00:45:00  2.942431E-06  4.488703E+03  4.488703E+03  3.742552E+14
           (01,041,24)  3.698868E-04  7.324822E-04  2.188111E-02  4.192314E-02
   8650    30 00:50:00  2.942791E-06  4.488703E+03  4.488703E+03  3.742552E+14
           (01,041,24)  3.699033E-04  7.325028E-04  2.188161E-02  4.192452E-02
   8651    30 00:55:00  2.943140E-06  4.488703E+03  4.488703E+03  3.742552E+14
           (01,041,24)  3.699195E-04  7.325280E-04  2.188220E-02  4.192603E-02
   8652    30 01:00:00  2.943479E-06  4.488703E+03  4.488703E+03  3.742552E+14
           (01,041,24)  3.699355E-04  7.325577E-04  2.188287E-02  4.192767E-02
   8653    30 01:05:00  2.943807E-06  4.488703E+03  4.488703E+03  3.742552E+14
           (01,041,24)  3.699513E-04  7.325921E-04  2.188363E-02  4.192945E-02
   8654    30 01:10:00  2.944124E-06  4.488703E+03  4.488703E+03  3.742552E+14
           (01,041,24)  3.699667E-04  7.326314E-04  2.188448E-02  4.193135E-02
   8655    30 01:15:00  2.944431E-06  4.488702E+03  4.488702E+03  3.742552E+14
           (01,041,24)  3.699819E-04  7.326755E-04  2.188543E-02  4.193340E-02
   8656    30 01:20:00  2.944727E-06  4.488702E+03  4.488702E+03  3.742552E+14
           (01,041,24)  3.699967E-04  7.327244E-04  2.188647E-02  4.193560E-02
   8657    30 01:25:00  2.945014E-06  4.488702E+03  4.488702E+03  3.742552E+14
           (01,041,24)  3.700112E-04  7.327783E-04  2.188761E-02  4.193793E-02
   8658    30 01:30:00  2.945292E-06  4.488702E+03  4.488702E+03  3.742552E+14
           (01,041,24)  3.700253E-04  7.328370E-04  2.188885E-02  4.194041E-02
   8659    30 01:35:00  2.945560E-06  4.488702E+03  4.488702E+03  3.742552E+14
           (01,041,24)  3.700390E-04  7.329005E-04  2.189018E-02  4.194303E-02
   8660    30 01:40:00  2.945821E-06  4.488702E+03  4.488702E+03  3.742552E+14
           (01,041,24)  3.700523E-04  7.329687E-04  2.189161E-02  4.194579E-02
   8661    30 01:45:00  2.946075E-06  4.488702E+03  4.488702E+03  3.742552E+14
           (01,041,24)  3.700651E-04  7.330414E-04  2.189313E-02  4.194869E-02
   8662    30 01:50:00  2.946323E-06  4.488702E+03  4.488702E+03  3.742552E+14
           (01,041,24)  3.700776E-04  7.331186E-04  2.189475E-02  4.195173E-02
   8663    30 01:55:00  2.946565E-06  4.488702E+03  4.488702E+03  3.742552E+14
           (01,041,24)  3.700895E-04  7.332001E-04  2.189645E-02  4.195490E-02
   8664    30 02:00:00  2.946803E-06  4.488702E+03  4.488702E+03  3.742552E+14
           (01,041,24)  3.701011E-04  7.332857E-04  2.189824E-02  4.195820E-02
   8665    30 02:05:00  2.947037E-06  4.488702E+03  4.488702E+03  3.742552E+14
           (01,041,24)  3.701122E-04  7.333751E-04  2.190012E-02  4.196162E-02
   8666    30 02:10:00  2.947269E-06  4.488701E+03  4.488701E+03  3.742552E+14
           (01,041,24)  3.701228E-04  7.334680E-04  2.190207E-02  4.196516E-02
   8667    30 02:15:00  2.947500E-06  4.488701E+03  4.488701E+03  3.742552E+14
           (01,041,24)  3.701330E-04  7.335644E-04  2.190409E-02  4.196881E-02
   8668    30 02:20:00  2.947731E-06  4.488701E+03  4.488701E+03  3.742552E+14
           (01,041,24)  3.701427E-04  7.336637E-04  2.190619E-02  4.197257E-02
   8669    30 02:25:00  2.947962E-06  4.488701E+03  4.488701E+03  3.742552E+14
           (01,041,24)  3.701520E-04  7.337658E-04  2.190835E-02  4.197642E-02
   8670    30 02:30:00  2.948196E-06  4.488701E+03  4.488701E+03  3.742552E+14
           (01,041,24)  3.701608E-04  7.338703E-04  2.191057E-02  4.198035E-02
   8671    30 02:35:00  2.948432E-06  4.488701E+03  4.488701E+03  3.742552E+14
           (01,041,24)  3.701692E-04  7.339770E-04  2.191284E-02  4.198436E-02
   8672    30 02:40:00  2.948671E-06  4.488701E+03  4.488701E+03  3.742552E+14
           (01,041,24)  3.701772E-04  7.340854E-04  2.191516E-02  4.198845E-02
   8673    30 02:45:00  2.948915E-06  4.488701E+03  4.488701E+03  3.742552E+14
           (01,041,24)  3.701848E-04  7.341952E-04  2.191752E-02  4.199259E-02
   8674    30 02:50:00  2.949163E-06  4.488701E+03  4.488701E+03  3.742552E+14
           (01,041,24)  3.701921E-04  7.343061E-04  2.191991E-02  4.199678E-02
   8675    30 02:55:00  2.949418E-06  4.488701E+03  4.488701E+03  3.742552E+14
           (01,041,24)  3.701989E-04  7.344178E-04  2.192233E-02  4.200101E-02
   8676    30 03:00:00  2.949678E-06  4.488701E+03  4.488701E+03  3.742552E+14
           (01,041,24)  3.702055E-04  7.345298E-04  2.192477E-02  4.200527E-02
   8677    30 03:05:00  2.949946E-06  4.488701E+03  4.488701E+03  3.742552E+14
           (01,041,24)  3.702117E-04  7.346419E-04  2.192723E-02  4.200955E-02
   8678    30 03:10:00  2.950220E-06  4.488701E+03  4.488701E+03  3.742552E+14
           (01,041,24)  3.702176E-04  7.347538E-04  2.192969E-02  4.201384E-02
   8679    30 03:15:00  2.950502E-06  4.488701E+03  4.488701E+03  3.742552E+14
           (01,041,24)  3.702233E-04  7.348651E-04  2.193216E-02  4.201814E-02
   8680    30 03:20:00  2.950792E-06  4.488701E+03  4.488701E+03  3.742552E+14
           (01,041,24)  3.702287E-04  7.349754E-04  2.193462E-02  4.202242E-02
   8681    30 03:25:00  2.951089E-06  4.488701E+03  4.488701E+03  3.742552E+14
           (01,041,24)  3.702339E-04  7.350845E-04  2.193707E-02  4.202669E-02
   8682    30 03:30:00  2.951395E-06  4.488701E+03  4.488701E+03  3.742552E+14
           (01,041,24)  3.702389E-04  7.351921E-04  2.193951E-02  4.203093E-02
   8683    30 03:35:00  2.951708E-06  4.488701E+03  4.488701E+03  3.742552E+14
           (01,041,24)  3.702438E-04  7.352979E-04  2.194192E-02  4.203513E-02
   8684    30 03:40:00  2.952030E-06  4.488701E+03  4.488701E+03  3.742552E+14
           (01,041,24)  3.702485E-04  7.354016E-04  2.194430E-02  4.203928E-02
   8685    30 03:45:00  2.952359E-06  4.488701E+03  4.488701E+03  3.742552E+14
           (01,041,24)  3.702531E-04  7.355029E-04  2.194664E-02  4.204339E-02
   8686    30 03:50:00  2.952696E-06  4.488702E+03  4.488702E+03  3.742552E+14
           (01,041,24)  3.702577E-04  7.356016E-04  2.194895E-02  4.204743E-02
   8687    30 03:55:00  2.953041E-06  4.488702E+03  4.488702E+03  3.742552E+14
           (01,041,24)  3.702622E-04  7.356975E-04  2.195121E-02  4.205140E-02
   8688    30 04:00:00  2.953393E-06  4.488702E+03  4.488702E+03  3.742552E+14
           (01,041,24)  3.702667E-04  7.357903E-04  2.195342E-02  4.205529E-02
   8689    30 04:05:00  2.953752E-06  4.488702E+03  4.488702E+03  3.742552E+14
           (01,041,24)  3.702712E-04  7.358798E-04  2.195558E-02  4.205910E-02
   8690    30 04:10:00  2.954119E-06  4.488702E+03  4.488702E+03  3.742552E+14
           (01,041,24)  3.702758E-04  7.359658E-04  2.195767E-02  4.206282E-02
   8691    30 04:15:00  2.954492E-06  4.488702E+03  4.488702E+03  3.742552E+14
           (01,041,24)  3.702804E-04  7.360482E-04  2.195970E-02  4.206644E-02
   8692    30 04:20:00  2.954871E-06  4.488702E+03  4.488702E+03  3.742552E+14
           (01,041,24)  3.702851E-04  7.361266E-04  2.196166E-02  4.206996E-02
   8693    30 04:25:00  2.955255E-06  4.488702E+03  4.488702E+03  3.742552E+14
           (01,041,24)  3.702900E-04  7.362010E-04  2.196354E-02  4.207336E-02
   8694    30 04:30:00  2.955646E-06  4.488702E+03  4.488702E+03  3.742552E+14
           (01,041,24)  3.702950E-04  7.362713E-04  2.196534E-02  4.207665E-02
   8695    30 04:35:00  2.956041E-06  4.488702E+03  4.488702E+03  3.742552E+14
           (01,041,24)  3.703002E-04  7.363373E-04  2.196707E-02  4.207983E-02
   8696    30 04:40:00  2.956441E-06  4.488702E+03  4.488702E+03  3.742552E+14
           (01,041,24)  3.703057E-04  7.363989E-04  2.196871E-02  4.208287E-02
   8697    30 04:45:00  2.956845E-06  4.488703E+03  4.488703E+03  3.742552E+14
           (01,041,24)  3.703113E-04  7.364560E-04  2.197026E-02  4.208579E-02
   8698    30 04:50:00  2.957253E-06  4.488703E+03  4.488703E+03  3.742552E+14
           (01,041,24)  3.703172E-04  7.365085E-04  2.197173E-02  4.208858E-02
   8699    30 04:55:00  2.957665E-06  4.488703E+03  4.488703E+03  3.742552E+14
           (01,041,24)  3.703235E-04  7.365563E-04  2.197310E-02  4.209124E-02
   8700    30 05:00:00  2.958079E-06  4.488703E+03  4.488703E+03  3.742552E+14
           (01,041,24)  3.703300E-04  7.365995E-04  2.197438E-02  4.209376E-02
   8701    30 05:05:00  2.958496E-06  4.488703E+03  4.488703E+03  3.742552E+14
           (01,041,24)  3.703368E-04  7.366381E-04  2.197556E-02  4.209614E-02
   8702    30 05:10:00  2.958916E-06  4.488703E+03  4.488703E+03  3.742552E+14
           (01,041,24)  3.703441E-04  7.366720E-04  2.197665E-02  4.209838E-02
   8703    30 05:15:00  2.959337E-06  4.488703E+03  4.488703E+03  3.742552E+14
           (01,041,24)  3.703517E-04  7.367012E-04  2.197765E-02  4.210049E-02
   8704    30 05:20:00  2.959759E-06  4.488703E+03  4.488703E+03  3.742552E+14
           (01,041,24)  3.703596E-04  7.367259E-04  2.197855E-02  4.210245E-02
   8705    30 05:25:00  2.960183E-06  4.488703E+03  4.488703E+03  3.742552E+14
           (01,041,24)  3.703680E-04  7.367461E-04  2.197937E-02  4.210428E-02
   8706    30 05:30:00  2.960608E-06  4.488703E+03  4.488703E+03  3.742552E+14
           (01,041,24)  3.703769E-04  7.367619E-04  2.198008E-02  4.210598E-02
   8707    30 05:35:00  2.961034E-06  4.488703E+03  4.488704E+03  3.742552E+14
           (01,041,24)  3.703861E-04  7.367735E-04  2.198071E-02  4.210754E-02
   8708    30 05:40:00  2.961461E-06  4.488704E+03  4.488704E+03  3.742552E+14
           (01,041,24)  3.703958E-04  7.367810E-04  2.198126E-02  4.210898E-02
   8709    30 05:45:00  2.961888E-06  4.488704E+03  4.488704E+03  3.742552E+14
           (01,041,24)  3.704059E-04  7.367846E-04  2.198172E-02  4.211029E-02
   8710    30 05:50:00  2.962316E-06  4.488704E+03  4.488704E+03  3.742552E+14
           (01,041,24)  3.704165E-04  7.367845E-04  2.198210E-02  4.211148E-02
   8711    30 05:55:00  2.962745E-06  4.488704E+03  4.488704E+03  3.742552E+14
           (01,041,24)  3.704276E-04  7.367809E-04  2.198240E-02  4.211256E-02
   8712    30 06:00:00  2.963174E-06  4.488704E+03  4.488704E+03  3.742552E+14
           (01,041,24)  3.704391E-04  7.367741E-04  2.198264E-02  4.211353E-02
   8713    30 06:05:00  2.963604E-06  4.488704E+03  4.488704E+03  3.742552E+14
           (01,041,24)  3.704510E-04  7.367644E-04  2.198281E-02  4.211441E-02
   8714    30 06:10:00  2.964035E-06  4.488704E+03  4.488704E+03  3.742552E+14
           (01,041,24)  3.704634E-04  7.367520E-04  2.198291E-02  4.211519E-02
   8715    30 06:15:00  2.964468E-06  4.488704E+03  4.488704E+03  3.742552E+14
           (01,041,24)  3.704763E-04  7.367373E-04  2.198296E-02  4.211588E-02
   8716    30 06:20:00  2.964902E-06  4.488704E+03  4.488704E+03  3.742552E+14
           (01,041,24)  3.704895E-04  7.367206E-04  2.198296E-02  4.211651E-02
   8717    30 06:25:00  2.965337E-06  4.488704E+03  4.488704E+03  3.742552E+14
           (01,041,24)  3.705031E-04  7.367021E-04  2.198291E-02  4.211706E-02
   8718    30 06:30:00  2.965774E-06  4.488704E+03  4.488704E+03  3.742552E+14
           (01,041,24)  3.705172E-04  7.366823E-04  2.198283E-02  4.211756E-02
   8719    30 06:35:00  2.966212E-06  4.488704E+03  4.488704E+03  3.742552E+14
           (01,041,24)  3.705316E-04  7.366614E-04  2.198271E-02  4.211801E-02
   8720    30 06:40:00  2.966652E-06  4.488704E+03  4.488704E+03  3.742552E+14
           (01,041,24)  3.705464E-04  7.366399E-04  2.198257E-02  4.211842E-02
   8721    30 06:45:00  2.967094E-06  4.488704E+03  4.488704E+03  3.742552E+14
           (01,041,24)  3.705615E-04  7.366181E-04  2.198241E-02  4.211881E-02
   8722    30 06:50:00  2.967538E-06  4.488704E+03  4.488704E+03  3.742552E+14
           (01,041,24)  3.705769E-04  7.365963E-04  2.198224E-02  4.211917E-02
   8723    30 06:55:00  2.967982E-06  4.488704E+03  4.488704E+03  3.742552E+14
           (01,041,24)  3.705925E-04  7.365749E-04  2.198206E-02  4.211954E-02
   8724    30 07:00:00  2.968428E-06  4.488704E+03  4.488704E+03  3.742552E+14
           (01,041,24)  3.706085E-04  7.365542E-04  2.198188E-02  4.211990E-02
   8725    30 07:05:00  2.968875E-06  4.488704E+03  4.488704E+03  3.742552E+14
           (01,041,24)  3.706246E-04  7.365346E-04  2.198171E-02  4.212028E-02
   8726    30 07:10:00  2.969321E-06  4.488704E+03  4.488704E+03  3.742552E+14
           (01,041,24)  3.706410E-04  7.365163E-04  2.198155E-02  4.212068E-02
   8727    30 07:15:00  2.969768E-06  4.488704E+03  4.488704E+03  3.742552E+14
           (01,041,24)  3.706575E-04  7.364998E-04  2.198142E-02  4.212111E-02
   8728    30 07:20:00  2.970212E-06  4.488704E+03  4.488704E+03  3.742552E+14
           (01,041,24)  3.706742E-04  7.364852E-04  2.198131E-02  4.212158E-02
   8729    30 07:25:00  2.970655E-06  4.488704E+03  4.488704E+03  3.742552E+14
           (01,041,24)  3.706909E-04  7.364730E-04  2.198123E-02  4.212211E-02
   8730    30 07:30:00  2.971095E-06  4.488704E+03  4.488704E+03  3.742552E+14
           (01,041,24)  3.707078E-04  7.364633E-04  2.198119E-02  4.212270E-02
   8731    30 07:35:00  2.971531E-06  4.488704E+03  4.488704E+03  3.742552E+14
           (01,041,24)  3.707246E-04  7.364564E-04  2.198119E-02  4.212335E-02
   8732    30 07:40:00  2.971962E-06  4.488704E+03  4.488704E+03  3.742552E+14
           (01,041,24)  3.707415E-04  7.364527E-04  2.198125E-02  4.212408E-02
   8733    30 07:45:00  2.972387E-06  4.488704E+03  4.488704E+03  3.742552E+14
           (01,041,24)  3.707584E-04  7.364522E-04  2.198136E-02  4.212489E-02
   8734    30 07:50:00  2.972805E-06  4.488704E+03  4.488704E+03  3.742552E+14
           (01,041,24)  3.707752E-04  7.364552E-04  2.198153E-02  4.212580E-02
   8735    30 07:55:00  2.973215E-06  4.488703E+03  4.488704E+03  3.742552E+14
           (01,041,24)  3.707920E-04  7.364620E-04  2.198176E-02  4.212680E-02
   8736    30 08:00:00  2.973616E-06  4.488703E+03  4.488703E+03  3.742552E+14
           (01,041,24)  3.708087E-04  7.364726E-04  2.198207E-02  4.212791E-02
   8737    30 08:05:00  2.974007E-06  4.488703E+03  4.488703E+03  3.742552E+14
           (01,041,24)  3.708252E-04  7.364873E-04  2.198245E-02  4.212913E-02
   8738    30 08:10:00  2.974387E-06  4.488703E+03  4.488703E+03  3.742552E+14
           (01,041,24)  3.708416E-04  7.365062E-04  2.198290E-02  4.213046E-02
   8739    30 08:15:00  2.974755E-06  4.488703E+03  4.488703E+03  3.742552E+14
           (01,041,24)  3.708578E-04  7.365294E-04  2.198344E-02  4.213191E-02
   8740    30 08:20:00  2.975112E-06  4.488703E+03  4.488703E+03  3.742552E+14
           (01,041,24)  3.708738E-04  7.365570E-04  2.198406E-02  4.213349E-02
   8741    30 08:25:00  2.975456E-06  4.488703E+03  4.488703E+03  3.742552E+14
           (01,041,24)  3.708895E-04  7.365891E-04  2.198477E-02  4.213519E-02
   8742    30 08:30:00  2.975788E-06  4.488703E+03  4.488703E+03  3.742552E+14
           (01,041,24)  3.709050E-04  7.366258E-04  2.198557E-02  4.213703E-02
   8743    30 08:35:00  2.976106E-06  4.488703E+03  4.488703E+03  3.742552E+14
           (01,041,24)  3.709202E-04  7.366670E-04  2.198646E-02  4.213899E-02
   8744    30 08:40:00  2.976413E-06  4.488703E+03  4.488703E+03  3.742552E+14
           (01,041,24)  3.709351E-04  7.367129E-04  2.198744E-02  4.214110E-02
   8745    30 08:45:00  2.976707E-06  4.488703E+03  4.488703E+03  3.742552E+14
           (01,041,24)  3.709496E-04  7.367634E-04  2.198852E-02  4.214333E-02
   8746    30 08:50:00  2.976989E-06  4.488702E+03  4.488702E+03  3.742552E+14
           (01,041,24)  3.709639E-04  7.368185E-04  2.198968E-02  4.214571E-02
   8747    30 08:55:00  2.977260E-06  4.488702E+03  4.488702E+03  3.742552E+14
           (01,041,24)  3.709777E-04  7.368782E-04  2.199095E-02  4.214822E-02
   8748    30 09:00:00  2.977521E-06  4.488702E+03  4.488702E+03  3.742552E+14
           (01,041,24)  3.709912E-04  7.369424E-04  2.199230E-02  4.215087E-02
   8749    30 09:05:00  2.977772E-06  4.488702E+03  4.488702E+03  3.742552E+14
           (01,041,24)  3.710043E-04  7.370109E-04  2.199375E-02  4.215365E-02
   8750    30 09:10:00  2.978016E-06  4.488702E+03  4.488702E+03  3.742552E+14
           (01,041,24)  3.710169E-04  7.370838E-04  2.199529E-02  4.215657E-02
   8751    30 09:15:00  2.978252E-06  4.488702E+03  4.488702E+03  3.742552E+14
           (01,041,24)  3.710292E-04  7.371609E-04  2.199692E-02  4.215961E-02
   8752    30 09:20:00  2.978483E-06  4.488702E+03  4.488702E+03  3.742552E+14
           (01,041,24)  3.710410E-04  7.372419E-04  2.199863E-02  4.216278E-02
   8753    30 09:25:00  2.978710E-06  4.488702E+03  4.488702E+03  3.742552E+14
           (01,041,24)  3.710524E-04  7.373268E-04  2.200043E-02  4.216608E-02
   8754    30 09:30:00  2.978934E-06  4.488702E+03  4.488702E+03  3.742552E+14
           (01,041,24)  3.710633E-04  7.374154E-04  2.200231E-02  4.216949E-02
   8755    30 09:35:00  2.979157E-06  4.488702E+03  4.488702E+03  3.742552E+14
           (01,041,24)  3.710738E-04  7.375073E-04  2.200426E-02  4.217301E-02
   8756    30 09:40:00  2.979380E-06  4.488702E+03  4.488702E+03  3.742552E+14
           (01,041,24)  3.710839E-04  7.376025E-04  2.200628E-02  4.217664E-02
   8757    30 09:45:00  2.979605E-06  4.488702E+03  4.488702E+03  3.742552E+14
           (01,041,24)  3.710935E-04  7.377006E-04  2.200837E-02  4.218037E-02
   8758    30 09:50:00  2.979832E-06  4.488702E+03  4.488702E+03  3.742552E+14
           (01,041,24)  3.711026E-04  7.378013E-04  2.201052E-02  4.218419E-02
   8759    30 09:55:00  2.980064E-06  4.488702E+03  4.488702E+03  3.742552E+14
           (01,041,24)  3.711114E-04  7.379044E-04  2.201272E-02  4.218809E-02
   8760    30 10:00:00  2.980300E-06  4.488702E+03  4.488702E+03  3.742552E+14
           (01,041,24)  3.711197E-04  7.380095E-04  2.201498E-02  4.219207E-02
   8761    30 10:05:00  2.980543E-06  4.488701E+03  4.488701E+03  3.742552E+14
           (01,041,24)  3.711276E-04  7.381164E-04  2.201728E-02  4.219612E-02
   8762    30 10:10:00  2.980793E-06  4.488701E+03  4.488701E+03  3.742552E+14
           (01,041,24)  3.711351E-04  7.382247E-04  2.201961E-02  4.220023E-02
   8763    30 10:15:00  2.981050E-06  4.488701E+03  4.488701E+03  3.742552E+14
           (01,041,24)  3.711422E-04  7.383341E-04  2.202198E-02  4.220438E-02
   8764    30 10:20:00  2.981315E-06  4.488701E+03  4.488701E+03  3.742552E+14
           (01,041,24)  3.711490E-04  7.384443E-04  2.202438E-02  4.220858E-02
   8765    30 10:25:00  2.981590E-06  4.488701E+03  4.488701E+03  3.742552E+14
           (01,041,24)  3.711554E-04  7.385549E-04  2.202679E-02  4.221280E-02
   8766    30 10:30:00  2.981873E-06  4.488701E+03  4.488701E+03  3.742552E+14
           (01,041,24)  3.711615E-04  7.386655E-04  2.202922E-02  4.221705E-02
